#\#CIF_2.0
data_CELSLC

# Crystal data
_pd_phase_name                         'Super Cell'
_cell_length_a                         20.000000
_cell_length_b                         20.000000
_cell_length_c                         100.000000
_cell_angle_alpha                      90.0000
_cell_angle_beta                       90.0000
_cell_angle_gamma                      90.0000
_symmetry_space_group_name_H-M_alt     'P 1'
_symmetry_Int_Tables_number            1

# Symmetry operations
loop_
    _space_group_symop_id
    _space_group_symop_operation_xyz
    1    'x,y,z'

# Atomic types
loop_
    _atom_site_type_symbol
    _atom_type_oxidation_number
    Ce4+  4.0000
    O2-  -2.0000

# Atomic sites
loop_
    _atom_site_label
    _atom_site_type_symbol
    _atom_site_occupancy
    _atom_site_fract_x
    _atom_site_fract_y
    _atom_site_fract_z
    _atom_site_thermal_displace_type
    _atom_site_U_iso_or_equiv
    Ce1  Ce4+  1.0000  0.983600  0.770980  0.972080  Uiso  0.001267
    Ce1  Ce4+  1.0000  0.855730  0.427650  0.994170  Uiso  0.001267
    Ce1  Ce4+  1.0000  0.978680  0.524030  0.949990  Uiso  0.001267
    Ce1  Ce4+  1.0000  0.850820  0.180700  0.972080  Uiso  0.001267
    Ce1  Ce4+  1.0000  0.973770  0.277070  0.927900  Uiso  0.001267
    Ce1  Ce4+  1.0000  0.968850  0.030120  0.905800  Uiso  0.001267
    Ce1  Ce4+  1.0000  0.619670  0.728820  0.994170  Uiso  0.001267
    Ce1  Ce4+  1.0000  0.742620  0.825190  0.949990  Uiso  0.001267
    Ce1  Ce4+  1.0000  0.865570  0.921570  0.905800  Uiso  0.001267
    Ce1  Ce4+  1.0000  0.614750  0.481860  0.972080  Uiso  0.001267
    Ce1  Ce4+  1.0000  0.737700  0.578240  0.927900  Uiso  0.001267
    Ce1  Ce4+  1.0000  0.860650  0.674610  0.883710  Uiso  0.001267
    Ce1  Ce4+  1.0000  0.983600  0.770980  0.839530  Uiso  0.001267
    Ce1  Ce4+  1.0000  0.486880  0.138540  0.994170  Uiso  0.001267
    Ce1  Ce4+  1.0000  0.609830  0.234910  0.949990  Uiso  0.001267
    Ce1  Ce4+  1.0000  0.732780  0.331280  0.905800  Uiso  0.001267
    Ce1  Ce4+  1.0000  0.855730  0.427650  0.861620  Uiso  0.001267
    Ce1  Ce4+  1.0000  0.978680  0.524030  0.817430  Uiso  0.001267
    Ce1  Ce4+  1.0000  0.727870  0.084330  0.883710  Uiso  0.001267
    Ce1  Ce4+  1.0000  0.850820  0.180700  0.839530  Uiso  0.001267
    Ce1  Ce4+  1.0000  0.973770  0.277070  0.795340  Uiso  0.001267
    Ce1  Ce4+  1.0000  0.968850  0.030120  0.773250  Uiso  0.001267
    Ce1  Ce4+  1.0000  0.378690  0.783030  0.972080  Uiso  0.001267
    Ce1  Ce4+  1.0000  0.501640  0.879400  0.927900  Uiso  0.001267
    Ce1  Ce4+  1.0000  0.624590  0.975780  0.883710  Uiso  0.001267
    Ce1  Ce4+  1.0000  0.250820  0.439700  0.994170  Uiso  0.001267
    Ce1  Ce4+  1.0000  0.373770  0.536070  0.949990  Uiso  0.001267
    Ce1  Ce4+  1.0000  0.496720  0.632450  0.905800  Uiso  0.001267
    Ce1  Ce4+  1.0000  0.619670  0.728820  0.861620  Uiso  0.001267
    Ce1  Ce4+  1.0000  0.742620  0.825190  0.817430  Uiso  0.001267
    Ce1  Ce4+  1.0000  0.865570  0.921570  0.773250  Uiso  0.001267
    Ce1  Ce4+  1.0000  0.245900  0.192750  0.972080  Uiso  0.001267
    Ce1  Ce4+  1.0000  0.368850  0.289120  0.927900  Uiso  0.001267
    Ce1  Ce4+  1.0000  0.491800  0.385490  0.883710  Uiso  0.001267
    Ce1  Ce4+  1.0000  0.614750  0.481860  0.839530  Uiso  0.001267
    Ce1  Ce4+  1.0000  0.737700  0.578240  0.795340  Uiso  0.001267
    Ce1  Ce4+  1.0000  0.860650  0.674610  0.751150  Uiso  0.001267
    Ce1  Ce4+  1.0000  0.983600  0.770980  0.706970  Uiso  0.001267
    Ce1  Ce4+  1.0000  0.363930  0.042160  0.905800  Uiso  0.001267
    Ce1  Ce4+  1.0000  0.486880  0.138540  0.861620  Uiso  0.001267
    Ce1  Ce4+  1.0000  0.609830  0.234910  0.817430  Uiso  0.001267
    Ce1  Ce4+  1.0000  0.732780  0.331280  0.773250  Uiso  0.001267
    Ce1  Ce4+  1.0000  0.855730  0.427650  0.729060  Uiso  0.001267
    Ce1  Ce4+  1.0000  0.978680  0.524030  0.684880  Uiso  0.001267
    Ce1  Ce4+  1.0000  0.727870  0.084330  0.751150  Uiso  0.001267
    Ce1  Ce4+  1.0000  0.850820  0.180700  0.706970  Uiso  0.001267
    Ce1  Ce4+  1.0000  0.973770  0.277070  0.662780  Uiso  0.001267
    Ce1  Ce4+  1.0000  0.968850  0.030120  0.640690  Uiso  0.001267
    Ce1  Ce4+  1.0000  0.014750  0.740870  0.994170  Uiso  0.001267
    Ce1  Ce4+  1.0000  0.137700  0.837240  0.949990  Uiso  0.001267
    Ce1  Ce4+  1.0000  0.260650  0.933610  0.905800  Uiso  0.001267
    Ce1  Ce4+  1.0000  0.009840  0.493910  0.972080  Uiso  0.001267
    Ce1  Ce4+  1.0000  0.132790  0.590280  0.927900  Uiso  0.001267
    Ce1  Ce4+  1.0000  0.255740  0.686660  0.883710  Uiso  0.001267
    Ce1  Ce4+  1.0000  0.378690  0.783030  0.839530  Uiso  0.001267
    Ce1  Ce4+  1.0000  0.501640  0.879400  0.795340  Uiso  0.001267
    Ce1  Ce4+  1.0000  0.624590  0.975780  0.751150  Uiso  0.001267
    Ce1  Ce4+  1.0000  0.004920  0.246960  0.949990  Uiso  0.001267
    Ce1  Ce4+  1.0000  0.127870  0.343330  0.905800  Uiso  0.001267
    Ce1  Ce4+  1.0000  0.250820  0.439700  0.861620  Uiso  0.001267
    Ce1  Ce4+  1.0000  0.373770  0.536070  0.817430  Uiso  0.001267
    Ce1  Ce4+  1.0000  0.496720  0.632450  0.773250  Uiso  0.001267
    Ce1  Ce4+  1.0000  0.619670  0.728820  0.729060  Uiso  0.001267
    Ce1  Ce4+  1.0000  0.742620  0.825190  0.684880  Uiso  0.001267
    Ce1  Ce4+  1.0000  0.865570  0.921570  0.640690  Uiso  0.001267
    Ce1  Ce4+  1.0000  0.000000  0.000000  0.927900  Uiso  0.001267
    Ce1  Ce4+  1.0000  0.122950  0.096370  0.883710  Uiso  0.001267
    Ce1  Ce4+  1.0000  0.245900  0.192750  0.839530  Uiso  0.001267
    Ce1  Ce4+  1.0000  0.368850  0.289120  0.795340  Uiso  0.001267
    Ce1  Ce4+  1.0000  0.491800  0.385490  0.751150  Uiso  0.001267
    Ce1  Ce4+  1.0000  0.614750  0.481860  0.706970  Uiso  0.001267
    Ce1  Ce4+  1.0000  0.737700  0.578240  0.662780  Uiso  0.001267
    Ce1  Ce4+  1.0000  0.860650  0.674610  0.618600  Uiso  0.001267
    Ce1  Ce4+  1.0000  0.983600  0.770980  0.574410  Uiso  0.001267
    Ce1  Ce4+  1.0000  0.363930  0.042160  0.773250  Uiso  0.001267
    Ce1  Ce4+  1.0000  0.486880  0.138540  0.729060  Uiso  0.001267
    Ce1  Ce4+  1.0000  0.609830  0.234910  0.684880  Uiso  0.001267
    Ce1  Ce4+  1.0000  0.732780  0.331280  0.640690  Uiso  0.001267
    Ce1  Ce4+  1.0000  0.855730  0.427650  0.596500  Uiso  0.001267
    Ce1  Ce4+  1.0000  0.978680  0.524030  0.552320  Uiso  0.001267
    Ce1  Ce4+  1.0000  0.727870  0.084330  0.618600  Uiso  0.001267
    Ce1  Ce4+  1.0000  0.850820  0.180700  0.574410  Uiso  0.001267
    Ce1  Ce4+  1.0000  0.973770  0.277070  0.530230  Uiso  0.001267
    Ce1  Ce4+  1.0000  0.968850  0.030120  0.508130  Uiso  0.001267
    Ce1  Ce4+  1.0000  0.019670  0.987820  0.883710  Uiso  0.001267
    Ce1  Ce4+  1.0000  0.014750  0.740870  0.861620  Uiso  0.001267
    Ce1  Ce4+  1.0000  0.137700  0.837240  0.817430  Uiso  0.001267
    Ce1  Ce4+  1.0000  0.260650  0.933610  0.773250  Uiso  0.001267
    Ce1  Ce4+  1.0000  0.009840  0.493910  0.839530  Uiso  0.001267
    Ce1  Ce4+  1.0000  0.132790  0.590280  0.795340  Uiso  0.001267
    Ce1  Ce4+  1.0000  0.255740  0.686660  0.751150  Uiso  0.001267
    Ce1  Ce4+  1.0000  0.378690  0.783030  0.706970  Uiso  0.001267
    Ce1  Ce4+  1.0000  0.501640  0.879400  0.662780  Uiso  0.001267
    Ce1  Ce4+  1.0000  0.624590  0.975780  0.618600  Uiso  0.001267
    Ce1  Ce4+  1.0000  0.004920  0.246960  0.817430  Uiso  0.001267
    Ce1  Ce4+  1.0000  0.127870  0.343330  0.773250  Uiso  0.001267
    Ce1  Ce4+  1.0000  0.250820  0.439700  0.729060  Uiso  0.001267
    Ce1  Ce4+  1.0000  0.373770  0.536070  0.684880  Uiso  0.001267
    Ce1  Ce4+  1.0000  0.496720  0.632450  0.640690  Uiso  0.001267
    Ce1  Ce4+  1.0000  0.619670  0.728820  0.596500  Uiso  0.001267
    Ce1  Ce4+  1.0000  0.742620  0.825190  0.552320  Uiso  0.001267
    Ce1  Ce4+  1.0000  0.865570  0.921570  0.508130  Uiso  0.001267
    Ce1  Ce4+  1.0000  0.000000  0.000000  0.795340  Uiso  0.001267
    Ce1  Ce4+  1.0000  0.122950  0.096370  0.751150  Uiso  0.001267
    Ce1  Ce4+  1.0000  0.245900  0.192750  0.706970  Uiso  0.001267
    Ce1  Ce4+  1.0000  0.368850  0.289120  0.662780  Uiso  0.001267
    Ce1  Ce4+  1.0000  0.491800  0.385490  0.618600  Uiso  0.001267
    Ce1  Ce4+  1.0000  0.614750  0.481860  0.574410  Uiso  0.001267
    Ce1  Ce4+  1.0000  0.737700  0.578240  0.530230  Uiso  0.001267
    Ce1  Ce4+  1.0000  0.860650  0.674610  0.486040  Uiso  0.001267
    Ce1  Ce4+  1.0000  0.983600  0.770980  0.441860  Uiso  0.001267
    Ce1  Ce4+  1.0000  0.363930  0.042160  0.640690  Uiso  0.001267
    Ce1  Ce4+  1.0000  0.486880  0.138540  0.596500  Uiso  0.001267
    Ce1  Ce4+  1.0000  0.609830  0.234910  0.552320  Uiso  0.001267
    Ce1  Ce4+  1.0000  0.732780  0.331280  0.508130  Uiso  0.001267
    Ce1  Ce4+  1.0000  0.855730  0.427650  0.463950  Uiso  0.001267
    Ce1  Ce4+  1.0000  0.978680  0.524030  0.419760  Uiso  0.001267
    Ce1  Ce4+  1.0000  0.727870  0.084330  0.486040  Uiso  0.001267
    Ce1  Ce4+  1.0000  0.850820  0.180700  0.441860  Uiso  0.001267
    Ce1  Ce4+  1.0000  0.973770  0.277070  0.397670  Uiso  0.001267
    Ce1  Ce4+  1.0000  0.968850  0.030120  0.375580  Uiso  0.001267
    Ce1  Ce4+  1.0000  0.019670  0.987820  0.751150  Uiso  0.001267
    Ce1  Ce4+  1.0000  0.014750  0.740870  0.729060  Uiso  0.001267
    Ce1  Ce4+  1.0000  0.137700  0.837240  0.684880  Uiso  0.001267
    Ce1  Ce4+  1.0000  0.260650  0.933610  0.640690  Uiso  0.001267
    Ce1  Ce4+  1.0000  0.009840  0.493910  0.706970  Uiso  0.001267
    Ce1  Ce4+  1.0000  0.132790  0.590280  0.662780  Uiso  0.001267
    Ce1  Ce4+  1.0000  0.255740  0.686660  0.618600  Uiso  0.001267
    Ce1  Ce4+  1.0000  0.378690  0.783030  0.574410  Uiso  0.001267
    Ce1  Ce4+  1.0000  0.501640  0.879400  0.530230  Uiso  0.001267
    Ce1  Ce4+  1.0000  0.624590  0.975780  0.486040  Uiso  0.001267
    Ce1  Ce4+  1.0000  0.004920  0.246960  0.684880  Uiso  0.001267
    Ce1  Ce4+  1.0000  0.127870  0.343330  0.640690  Uiso  0.001267
    Ce1  Ce4+  1.0000  0.250820  0.439700  0.596500  Uiso  0.001267
    Ce1  Ce4+  1.0000  0.373770  0.536070  0.552320  Uiso  0.001267
    Ce1  Ce4+  1.0000  0.496720  0.632450  0.508130  Uiso  0.001267
    Ce1  Ce4+  1.0000  0.619670  0.728820  0.463950  Uiso  0.001267
    Ce1  Ce4+  1.0000  0.742620  0.825190  0.419760  Uiso  0.001267
    Ce1  Ce4+  1.0000  0.865570  0.921570  0.375580  Uiso  0.001267
    Ce1  Ce4+  1.0000  0.000000  0.000000  0.662780  Uiso  0.001267
    Ce1  Ce4+  1.0000  0.122950  0.096370  0.618600  Uiso  0.001267
    Ce1  Ce4+  1.0000  0.245900  0.192750  0.574410  Uiso  0.001267
    Ce1  Ce4+  1.0000  0.368850  0.289120  0.530230  Uiso  0.001267
    Ce1  Ce4+  1.0000  0.491800  0.385490  0.486040  Uiso  0.001267
    Ce1  Ce4+  1.0000  0.614750  0.481860  0.441860  Uiso  0.001267
    Ce1  Ce4+  1.0000  0.737700  0.578240  0.397670  Uiso  0.001267
    Ce1  Ce4+  1.0000  0.860650  0.674610  0.353480  Uiso  0.001267
    Ce1  Ce4+  1.0000  0.983600  0.770980  0.309300  Uiso  0.001267
    Ce1  Ce4+  1.0000  0.363930  0.042160  0.508130  Uiso  0.001267
    Ce1  Ce4+  1.0000  0.486880  0.138540  0.463950  Uiso  0.001267
    Ce1  Ce4+  1.0000  0.609830  0.234910  0.419760  Uiso  0.001267
    Ce1  Ce4+  1.0000  0.732780  0.331280  0.375580  Uiso  0.001267
    Ce1  Ce4+  1.0000  0.855730  0.427650  0.331390  Uiso  0.001267
    Ce1  Ce4+  1.0000  0.978680  0.524030  0.287210  Uiso  0.001267
    Ce1  Ce4+  1.0000  0.727870  0.084330  0.353480  Uiso  0.001267
    Ce1  Ce4+  1.0000  0.850820  0.180700  0.309300  Uiso  0.001267
    Ce1  Ce4+  1.0000  0.973770  0.277070  0.265110  Uiso  0.001267
    Ce1  Ce4+  1.0000  0.968850  0.030120  0.243020  Uiso  0.001267
    Ce1  Ce4+  1.0000  0.019670  0.987820  0.618600  Uiso  0.001267
    Ce1  Ce4+  1.0000  0.014750  0.740870  0.596500  Uiso  0.001267
    Ce1  Ce4+  1.0000  0.137700  0.837240  0.552320  Uiso  0.001267
    Ce1  Ce4+  1.0000  0.260650  0.933610  0.508130  Uiso  0.001267
    Ce1  Ce4+  1.0000  0.009840  0.493910  0.574410  Uiso  0.001267
    Ce1  Ce4+  1.0000  0.132790  0.590280  0.530230  Uiso  0.001267
    Ce1  Ce4+  1.0000  0.255740  0.686660  0.486040  Uiso  0.001267
    Ce1  Ce4+  1.0000  0.378690  0.783030  0.441860  Uiso  0.001267
    Ce1  Ce4+  1.0000  0.501640  0.879400  0.397670  Uiso  0.001267
    Ce1  Ce4+  1.0000  0.624590  0.975780  0.353480  Uiso  0.001267
    Ce1  Ce4+  1.0000  0.004920  0.246960  0.552320  Uiso  0.001267
    Ce1  Ce4+  1.0000  0.127870  0.343330  0.508130  Uiso  0.001267
    Ce1  Ce4+  1.0000  0.250820  0.439700  0.463950  Uiso  0.001267
    Ce1  Ce4+  1.0000  0.373770  0.536070  0.419760  Uiso  0.001267
    Ce1  Ce4+  1.0000  0.496720  0.632450  0.375580  Uiso  0.001267
    Ce1  Ce4+  1.0000  0.619670  0.728820  0.331390  Uiso  0.001267
    Ce1  Ce4+  1.0000  0.742620  0.825190  0.287210  Uiso  0.001267
    Ce1  Ce4+  1.0000  0.865570  0.921570  0.243020  Uiso  0.001267
    Ce1  Ce4+  1.0000  0.000000  0.000000  0.530230  Uiso  0.001267
    Ce1  Ce4+  1.0000  0.122950  0.096370  0.486040  Uiso  0.001267
    Ce1  Ce4+  1.0000  0.245900  0.192750  0.441860  Uiso  0.001267
    Ce1  Ce4+  1.0000  0.368850  0.289120  0.397670  Uiso  0.001267
    Ce1  Ce4+  1.0000  0.491800  0.385490  0.353480  Uiso  0.001267
    Ce1  Ce4+  1.0000  0.614750  0.481860  0.309300  Uiso  0.001267
    Ce1  Ce4+  1.0000  0.737700  0.578240  0.265110  Uiso  0.001267
    Ce1  Ce4+  1.0000  0.860650  0.674610  0.220930  Uiso  0.001267
    Ce1  Ce4+  1.0000  0.983600  0.770980  0.176740  Uiso  0.001267
    Ce1  Ce4+  1.0000  0.363930  0.042160  0.375580  Uiso  0.001267
    Ce1  Ce4+  1.0000  0.486880  0.138540  0.331390  Uiso  0.001267
    Ce1  Ce4+  1.0000  0.609830  0.234910  0.287210  Uiso  0.001267
    Ce1  Ce4+  1.0000  0.732780  0.331280  0.243020  Uiso  0.001267
    Ce1  Ce4+  1.0000  0.855730  0.427650  0.198830  Uiso  0.001267
    Ce1  Ce4+  1.0000  0.978680  0.524030  0.154650  Uiso  0.001267
    Ce1  Ce4+  1.0000  0.727870  0.084330  0.220930  Uiso  0.001267
    Ce1  Ce4+  1.0000  0.850820  0.180700  0.176740  Uiso  0.001267
    Ce1  Ce4+  1.0000  0.973770  0.277070  0.132560  Uiso  0.001267
    Ce1  Ce4+  1.0000  0.968850  0.030120  0.110460  Uiso  0.001267
    Ce1  Ce4+  1.0000  0.019670  0.987820  0.486040  Uiso  0.001267
    Ce1  Ce4+  1.0000  0.014750  0.740870  0.463950  Uiso  0.001267
    Ce1  Ce4+  1.0000  0.137700  0.837240  0.419760  Uiso  0.001267
    Ce1  Ce4+  1.0000  0.260650  0.933610  0.375580  Uiso  0.001267
    Ce1  Ce4+  1.0000  0.009840  0.493910  0.441860  Uiso  0.001267
    Ce1  Ce4+  1.0000  0.132790  0.590280  0.397670  Uiso  0.001267
    Ce1  Ce4+  1.0000  0.255740  0.686660  0.353480  Uiso  0.001267
    Ce1  Ce4+  1.0000  0.378690  0.783030  0.309300  Uiso  0.001267
    Ce1  Ce4+  1.0000  0.501640  0.879400  0.265110  Uiso  0.001267
    Ce1  Ce4+  1.0000  0.624590  0.975780  0.220930  Uiso  0.001267
    Ce1  Ce4+  1.0000  0.004920  0.246960  0.419760  Uiso  0.001267
    Ce1  Ce4+  1.0000  0.127870  0.343330  0.375580  Uiso  0.001267
    Ce1  Ce4+  1.0000  0.250820  0.439700  0.331390  Uiso  0.001267
    Ce1  Ce4+  1.0000  0.373770  0.536070  0.287210  Uiso  0.001267
    Ce1  Ce4+  1.0000  0.496720  0.632450  0.243020  Uiso  0.001267
    Ce1  Ce4+  1.0000  0.619670  0.728820  0.198830  Uiso  0.001267
    Ce1  Ce4+  1.0000  0.742620  0.825190  0.154650  Uiso  0.001267
    Ce1  Ce4+  1.0000  0.865570  0.921570  0.110460  Uiso  0.001267
    Ce1  Ce4+  1.0000  0.000000  0.000000  0.397670  Uiso  0.001267
    Ce1  Ce4+  1.0000  0.122950  0.096370  0.353480  Uiso  0.001267
    Ce1  Ce4+  1.0000  0.245900  0.192750  0.309300  Uiso  0.001267
    Ce1  Ce4+  1.0000  0.368850  0.289120  0.265110  Uiso  0.001267
    Ce1  Ce4+  1.0000  0.491800  0.385490  0.220930  Uiso  0.001267
    Ce1  Ce4+  1.0000  0.614750  0.481860  0.176740  Uiso  0.001267
    Ce1  Ce4+  1.0000  0.737700  0.578240  0.132560  Uiso  0.001267
    Ce1  Ce4+  1.0000  0.860650  0.674610  0.088370  Uiso  0.001267
    Ce1  Ce4+  1.0000  0.983600  0.770980  0.044190  Uiso  0.001267
    Ce1  Ce4+  1.0000  0.363930  0.042160  0.243020  Uiso  0.001267
    Ce1  Ce4+  1.0000  0.486880  0.138540  0.198830  Uiso  0.001267
    Ce1  Ce4+  1.0000  0.609830  0.234910  0.154650  Uiso  0.001267
    Ce1  Ce4+  1.0000  0.732780  0.331280  0.110460  Uiso  0.001267
    Ce1  Ce4+  1.0000  0.855730  0.427650  0.066280  Uiso  0.001267
    Ce1  Ce4+  1.0000  0.978680  0.524030  0.022090  Uiso  0.001267
    Ce1  Ce4+  1.0000  0.727870  0.084330  0.088370  Uiso  0.001267
    Ce1  Ce4+  1.0000  0.850820  0.180700  0.044190  Uiso  0.001267
    Ce1  Ce4+  1.0000  0.973770  0.277070  0.000000  Uiso  0.001267
    Ce1  Ce4+  1.0000  0.019670  0.987820  0.353480  Uiso  0.001267
    Ce1  Ce4+  1.0000  0.014750  0.740870  0.331390  Uiso  0.001267
    Ce1  Ce4+  1.0000  0.137700  0.837240  0.287210  Uiso  0.001267
    Ce1  Ce4+  1.0000  0.260650  0.933610  0.243020  Uiso  0.001267
    Ce1  Ce4+  1.0000  0.009840  0.493910  0.309300  Uiso  0.001267
    Ce1  Ce4+  1.0000  0.132790  0.590280  0.265110  Uiso  0.001267
    Ce1  Ce4+  1.0000  0.255740  0.686660  0.220930  Uiso  0.001267
    Ce1  Ce4+  1.0000  0.378690  0.783030  0.176740  Uiso  0.001267
    Ce1  Ce4+  1.0000  0.501640  0.879400  0.132560  Uiso  0.001267
    Ce1  Ce4+  1.0000  0.624590  0.975780  0.088370  Uiso  0.001267
    Ce1  Ce4+  1.0000  0.004920  0.246960  0.287210  Uiso  0.001267
    Ce1  Ce4+  1.0000  0.127870  0.343330  0.243020  Uiso  0.001267
    Ce1  Ce4+  1.0000  0.250820  0.439700  0.198830  Uiso  0.001267
    Ce1  Ce4+  1.0000  0.373770  0.536070  0.154650  Uiso  0.001267
    Ce1  Ce4+  1.0000  0.496720  0.632450  0.110460  Uiso  0.001267
    Ce1  Ce4+  1.0000  0.619670  0.728820  0.066280  Uiso  0.001267
    Ce1  Ce4+  1.0000  0.742620  0.825190  0.022090  Uiso  0.001267
    Ce1  Ce4+  1.0000  0.000000  0.000000  0.265110  Uiso  0.001267
    Ce1  Ce4+  1.0000  0.122950  0.096370  0.220930  Uiso  0.001267
    Ce1  Ce4+  1.0000  0.245900  0.192750  0.176740  Uiso  0.001267
    Ce1  Ce4+  1.0000  0.368850  0.289120  0.132560  Uiso  0.001267
    Ce1  Ce4+  1.0000  0.491800  0.385490  0.088370  Uiso  0.001267
    Ce1  Ce4+  1.0000  0.614750  0.481860  0.044190  Uiso  0.001267
    Ce1  Ce4+  1.0000  0.737700  0.578240  0.000000  Uiso  0.001267
    Ce1  Ce4+  1.0000  0.363930  0.042160  0.110460  Uiso  0.001267
    Ce1  Ce4+  1.0000  0.486880  0.138540  0.066280  Uiso  0.001267
    Ce1  Ce4+  1.0000  0.609830  0.234910  0.022090  Uiso  0.001267
    Ce1  Ce4+  1.0000  0.019670  0.987820  0.220930  Uiso  0.001267
    Ce1  Ce4+  1.0000  0.014750  0.740870  0.198830  Uiso  0.001267
    Ce1  Ce4+  1.0000  0.137700  0.837240  0.154650  Uiso  0.001267
    Ce1  Ce4+  1.0000  0.260650  0.933610  0.110460  Uiso  0.001267
    Ce1  Ce4+  1.0000  0.009840  0.493910  0.176740  Uiso  0.001267
    Ce1  Ce4+  1.0000  0.132790  0.590280  0.132560  Uiso  0.001267
    Ce1  Ce4+  1.0000  0.255740  0.686660  0.088370  Uiso  0.001267
    Ce1  Ce4+  1.0000  0.378690  0.783030  0.044190  Uiso  0.001267
    Ce1  Ce4+  1.0000  0.501640  0.879400  0.000000  Uiso  0.001267
    Ce1  Ce4+  1.0000  0.004920  0.246960  0.154650  Uiso  0.001267
    Ce1  Ce4+  1.0000  0.127870  0.343330  0.110460  Uiso  0.001267
    Ce1  Ce4+  1.0000  0.250820  0.439700  0.066280  Uiso  0.001267
    Ce1  Ce4+  1.0000  0.373770  0.536070  0.022090  Uiso  0.001267
    Ce1  Ce4+  1.0000  0.000000  0.000000  0.132560  Uiso  0.001267
    Ce1  Ce4+  1.0000  0.122950  0.096370  0.088370  Uiso  0.001267
    Ce1  Ce4+  1.0000  0.245900  0.192750  0.044190  Uiso  0.001267
    Ce1  Ce4+  1.0000  0.368850  0.289120  0.000000  Uiso  0.001267
    Ce1  Ce4+  1.0000  0.019670  0.987820  0.088370  Uiso  0.001267
    Ce1  Ce4+  1.0000  0.014750  0.740870  0.066280  Uiso  0.001267
    Ce1  Ce4+  1.0000  0.137700  0.837240  0.022090  Uiso  0.001267
    Ce1  Ce4+  1.0000  0.009840  0.493910  0.044190  Uiso  0.001267
    Ce1  Ce4+  1.0000  0.132790  0.590280  0.000000  Uiso  0.001267
    Ce1  Ce4+  1.0000  0.004920  0.246960  0.022090  Uiso  0.001267
    O1  O2-  1.0000  0.957780  0.993850  0.972080  Uiso  0.025330
    O1  O2-  1.0000  0.829910  0.650520  0.994170  Uiso  0.025330
    O1  O2-  1.0000  0.952860  0.746890  0.949990  Uiso  0.025330
    O1  O2-  1.0000  0.825000  0.403560  0.972080  Uiso  0.025330
    O1  O2-  1.0000  0.947950  0.499930  0.927900  Uiso  0.025330
    O1  O2-  1.0000  0.697130  0.060230  0.994170  Uiso  0.025330
    O1  O2-  1.0000  0.820080  0.156610  0.949990  Uiso  0.025330
    O1  O2-  1.0000  0.943030  0.252980  0.905800  Uiso  0.025330
    O1  O2-  1.0000  0.938110  0.006020  0.883710  Uiso  0.025330
    O1  O2-  1.0000  0.593850  0.951680  0.994170  Uiso  0.025330
    O1  O2-  1.0000  0.588930  0.704730  0.972080  Uiso  0.025330
    O1  O2-  1.0000  0.711880  0.801100  0.927900  Uiso  0.025330
    O1  O2-  1.0000  0.834830  0.897470  0.883710  Uiso  0.025330
    O1  O2-  1.0000  0.957780  0.993850  0.839530  Uiso  0.025330
    O1  O2-  1.0000  0.461060  0.361400  0.994170  Uiso  0.025330
    O1  O2-  1.0000  0.584010  0.457770  0.949990  Uiso  0.025330
    O1  O2-  1.0000  0.706960  0.554140  0.905800  Uiso  0.025330
    O1  O2-  1.0000  0.829910  0.650520  0.861620  Uiso  0.025330
    O1  O2-  1.0000  0.952860  0.746890  0.817430  Uiso  0.025330
    O1  O2-  1.0000  0.456150  0.114440  0.972080  Uiso  0.025330
    O1  O2-  1.0000  0.579100  0.210820  0.927900  Uiso  0.025330
    O1  O2-  1.0000  0.702050  0.307190  0.883710  Uiso  0.025330
    O1  O2-  1.0000  0.825000  0.403560  0.839530  Uiso  0.025330
    O1  O2-  1.0000  0.947950  0.499930  0.795340  Uiso  0.025330
    O1  O2-  1.0000  0.697130  0.060230  0.861620  Uiso  0.025330
    O1  O2-  1.0000  0.820080  0.156610  0.817430  Uiso  0.025330
    O1  O2-  1.0000  0.943030  0.252980  0.773250  Uiso  0.025330
    O1  O2-  1.0000  0.938110  0.006020  0.751150  Uiso  0.025330
    O1  O2-  1.0000  0.225000  0.662560  0.994170  Uiso  0.025330
    O1  O2-  1.0000  0.347950  0.758940  0.949990  Uiso  0.025330
    O1  O2-  1.0000  0.470900  0.855310  0.905800  Uiso  0.025330
    O1  O2-  1.0000  0.593850  0.951680  0.861620  Uiso  0.025330
    O1  O2-  1.0000  0.220080  0.415610  0.972080  Uiso  0.025330
    O1  O2-  1.0000  0.343030  0.511980  0.927900  Uiso  0.025330
    O1  O2-  1.0000  0.465980  0.608350  0.883710  Uiso  0.025330
    O1  O2-  1.0000  0.588930  0.704730  0.839530  Uiso  0.025330
    O1  O2-  1.0000  0.711880  0.801100  0.795340  Uiso  0.025330
    O1  O2-  1.0000  0.834830  0.897470  0.751150  Uiso  0.025330
    O1  O2-  1.0000  0.957780  0.993850  0.706970  Uiso  0.025330
    O1  O2-  1.0000  0.092210  0.072280  0.994170  Uiso  0.025330
    O1  O2-  1.0000  0.215160  0.168650  0.949990  Uiso  0.025330
    O1  O2-  1.0000  0.338110  0.265030  0.905800  Uiso  0.025330
    O1  O2-  1.0000  0.461060  0.361400  0.861620  Uiso  0.025330
    O1  O2-  1.0000  0.584010  0.457770  0.817430  Uiso  0.025330
    O1  O2-  1.0000  0.706960  0.554140  0.773250  Uiso  0.025330
    O1  O2-  1.0000  0.829910  0.650520  0.729060  Uiso  0.025330
    O1  O2-  1.0000  0.952860  0.746890  0.684880  Uiso  0.025330
    O1  O2-  1.0000  0.333200  0.018070  0.883710  Uiso  0.025330
    O1  O2-  1.0000  0.456150  0.114440  0.839530  Uiso  0.025330
    O1  O2-  1.0000  0.579100  0.210820  0.795340  Uiso  0.025330
    O1  O2-  1.0000  0.702050  0.307190  0.751150  Uiso  0.025330
    O1  O2-  1.0000  0.825000  0.403560  0.706970  Uiso  0.025330
    O1  O2-  1.0000  0.947950  0.499930  0.662780  Uiso  0.025330
    O1  O2-  1.0000  0.697130  0.060230  0.729060  Uiso  0.025330
    O1  O2-  1.0000  0.820080  0.156610  0.684880  Uiso  0.025330
    O1  O2-  1.0000  0.943030  0.252980  0.640690  Uiso  0.025330
    O1  O2-  1.0000  0.938110  0.006020  0.618600  Uiso  0.025330
    O1  O2-  1.0000  0.106970  0.813150  0.927900  Uiso  0.025330
    O1  O2-  1.0000  0.229920  0.909520  0.883710  Uiso  0.025330
    O1  O2-  1.0000  0.102050  0.566190  0.905800  Uiso  0.025330
    O1  O2-  1.0000  0.225000  0.662560  0.861620  Uiso  0.025330
    O1  O2-  1.0000  0.347950  0.758940  0.817430  Uiso  0.025330
    O1  O2-  1.0000  0.470900  0.855310  0.773250  Uiso  0.025330
    O1  O2-  1.0000  0.593850  0.951680  0.729060  Uiso  0.025330
    O1  O2-  1.0000  0.097130  0.319240  0.883710  Uiso  0.025330
    O1  O2-  1.0000  0.220080  0.415610  0.839530  Uiso  0.025330
    O1  O2-  1.0000  0.343030  0.511980  0.795340  Uiso  0.025330
    O1  O2-  1.0000  0.465980  0.608350  0.751150  Uiso  0.025330
    O1  O2-  1.0000  0.588930  0.704730  0.706970  Uiso  0.025330
    O1  O2-  1.0000  0.711880  0.801100  0.662780  Uiso  0.025330
    O1  O2-  1.0000  0.834830  0.897470  0.618600  Uiso  0.025330
    O1  O2-  1.0000  0.957780  0.993850  0.574410  Uiso  0.025330
    O1  O2-  1.0000  0.092210  0.072280  0.861620  Uiso  0.025330
    O1  O2-  1.0000  0.215160  0.168650  0.817430  Uiso  0.025330
    O1  O2-  1.0000  0.338110  0.265030  0.773250  Uiso  0.025330
    O1  O2-  1.0000  0.461060  0.361400  0.729060  Uiso  0.025330
    O1  O2-  1.0000  0.584010  0.457770  0.684880  Uiso  0.025330
    O1  O2-  1.0000  0.706960  0.554140  0.640690  Uiso  0.025330
    O1  O2-  1.0000  0.829910  0.650520  0.596500  Uiso  0.025330
    O1  O2-  1.0000  0.952860  0.746890  0.552320  Uiso  0.025330
    O1  O2-  1.0000  0.333200  0.018070  0.751150  Uiso  0.025330
    O1  O2-  1.0000  0.456150  0.114440  0.706970  Uiso  0.025330
    O1  O2-  1.0000  0.579100  0.210820  0.662780  Uiso  0.025330
    O1  O2-  1.0000  0.702050  0.307190  0.618600  Uiso  0.025330
    O1  O2-  1.0000  0.825000  0.403560  0.574410  Uiso  0.025330
    O1  O2-  1.0000  0.947950  0.499930  0.530230  Uiso  0.025330
    O1  O2-  1.0000  0.697130  0.060230  0.596500  Uiso  0.025330
    O1  O2-  1.0000  0.820080  0.156610  0.552320  Uiso  0.025330
    O1  O2-  1.0000  0.943030  0.252980  0.508130  Uiso  0.025330
    O1  O2-  1.0000  0.938110  0.006020  0.486040  Uiso  0.025330
    O1  O2-  1.0000  0.106970  0.813150  0.795340  Uiso  0.025330
    O1  O2-  1.0000  0.229920  0.909520  0.751150  Uiso  0.025330
    O1  O2-  1.0000  0.102050  0.566190  0.773250  Uiso  0.025330
    O1  O2-  1.0000  0.225000  0.662560  0.729060  Uiso  0.025330
    O1  O2-  1.0000  0.347950  0.758940  0.684880  Uiso  0.025330
    O1  O2-  1.0000  0.470900  0.855310  0.640690  Uiso  0.025330
    O1  O2-  1.0000  0.593850  0.951680  0.596500  Uiso  0.025330
    O1  O2-  1.0000  0.097130  0.319240  0.751150  Uiso  0.025330
    O1  O2-  1.0000  0.220080  0.415610  0.706970  Uiso  0.025330
    O1  O2-  1.0000  0.343030  0.511980  0.662780  Uiso  0.025330
    O1  O2-  1.0000  0.465980  0.608350  0.618600  Uiso  0.025330
    O1  O2-  1.0000  0.588930  0.704730  0.574410  Uiso  0.025330
    O1  O2-  1.0000  0.711880  0.801100  0.530230  Uiso  0.025330
    O1  O2-  1.0000  0.834830  0.897470  0.486040  Uiso  0.025330
    O1  O2-  1.0000  0.957780  0.993850  0.441860  Uiso  0.025330
    O1  O2-  1.0000  0.092210  0.072280  0.729060  Uiso  0.025330
    O1  O2-  1.0000  0.215160  0.168650  0.684880  Uiso  0.025330
    O1  O2-  1.0000  0.338110  0.265030  0.640690  Uiso  0.025330
    O1  O2-  1.0000  0.461060  0.361400  0.596500  Uiso  0.025330
    O1  O2-  1.0000  0.584010  0.457770  0.552320  Uiso  0.025330
    O1  O2-  1.0000  0.706960  0.554140  0.508130  Uiso  0.025330
    O1  O2-  1.0000  0.829910  0.650520  0.463950  Uiso  0.025330
    O1  O2-  1.0000  0.952860  0.746890  0.419760  Uiso  0.025330
    O1  O2-  1.0000  0.333200  0.018070  0.618600  Uiso  0.025330
    O1  O2-  1.0000  0.456150  0.114440  0.574410  Uiso  0.025330
    O1  O2-  1.0000  0.579100  0.210820  0.530230  Uiso  0.025330
    O1  O2-  1.0000  0.702050  0.307190  0.486040  Uiso  0.025330
    O1  O2-  1.0000  0.825000  0.403560  0.441860  Uiso  0.025330
    O1  O2-  1.0000  0.947950  0.499930  0.397670  Uiso  0.025330
    O1  O2-  1.0000  0.697130  0.060230  0.463950  Uiso  0.025330
    O1  O2-  1.0000  0.820080  0.156610  0.419760  Uiso  0.025330
    O1  O2-  1.0000  0.943030  0.252980  0.375580  Uiso  0.025330
    O1  O2-  1.0000  0.938110  0.006020  0.353480  Uiso  0.025330
    O1  O2-  1.0000  0.106970  0.813150  0.662780  Uiso  0.025330
    O1  O2-  1.0000  0.229920  0.909520  0.618600  Uiso  0.025330
    O1  O2-  1.0000  0.102050  0.566190  0.640690  Uiso  0.025330
    O1  O2-  1.0000  0.225000  0.662560  0.596500  Uiso  0.025330
    O1  O2-  1.0000  0.347950  0.758940  0.552320  Uiso  0.025330
    O1  O2-  1.0000  0.470900  0.855310  0.508130  Uiso  0.025330
    O1  O2-  1.0000  0.593850  0.951680  0.463950  Uiso  0.025330
    O1  O2-  1.0000  0.097130  0.319240  0.618600  Uiso  0.025330
    O1  O2-  1.0000  0.220080  0.415610  0.574410  Uiso  0.025330
    O1  O2-  1.0000  0.343030  0.511980  0.530230  Uiso  0.025330
    O1  O2-  1.0000  0.465980  0.608350  0.486040  Uiso  0.025330
    O1  O2-  1.0000  0.588930  0.704730  0.441860  Uiso  0.025330
    O1  O2-  1.0000  0.711880  0.801100  0.397670  Uiso  0.025330
    O1  O2-  1.0000  0.834830  0.897470  0.353480  Uiso  0.025330
    O1  O2-  1.0000  0.957780  0.993850  0.309300  Uiso  0.025330
    O1  O2-  1.0000  0.092210  0.072280  0.596500  Uiso  0.025330
    O1  O2-  1.0000  0.215160  0.168650  0.552320  Uiso  0.025330
    O1  O2-  1.0000  0.338110  0.265030  0.508130  Uiso  0.025330
    O1  O2-  1.0000  0.461060  0.361400  0.463950  Uiso  0.025330
    O1  O2-  1.0000  0.584010  0.457770  0.419760  Uiso  0.025330
    O1  O2-  1.0000  0.706960  0.554140  0.375580  Uiso  0.025330
    O1  O2-  1.0000  0.829910  0.650520  0.331390  Uiso  0.025330
    O1  O2-  1.0000  0.952860  0.746890  0.287210  Uiso  0.025330
    O1  O2-  1.0000  0.333200  0.018070  0.486040  Uiso  0.025330
    O1  O2-  1.0000  0.456150  0.114440  0.441860  Uiso  0.025330
    O1  O2-  1.0000  0.579100  0.210820  0.397670  Uiso  0.025330
    O1  O2-  1.0000  0.702050  0.307190  0.353480  Uiso  0.025330
    O1  O2-  1.0000  0.825000  0.403560  0.309300  Uiso  0.025330
    O1  O2-  1.0000  0.947950  0.499930  0.265110  Uiso  0.025330
    O1  O2-  1.0000  0.697130  0.060230  0.331390  Uiso  0.025330
    O1  O2-  1.0000  0.820080  0.156610  0.287210  Uiso  0.025330
    O1  O2-  1.0000  0.943030  0.252980  0.243020  Uiso  0.025330
    O1  O2-  1.0000  0.938110  0.006020  0.220930  Uiso  0.025330
    O1  O2-  1.0000  0.106970  0.813150  0.530230  Uiso  0.025330
    O1  O2-  1.0000  0.229920  0.909520  0.486040  Uiso  0.025330
    O1  O2-  1.0000  0.102050  0.566190  0.508130  Uiso  0.025330
    O1  O2-  1.0000  0.225000  0.662560  0.463950  Uiso  0.025330
    O1  O2-  1.0000  0.347950  0.758940  0.419760  Uiso  0.025330
    O1  O2-  1.0000  0.470900  0.855310  0.375580  Uiso  0.025330
    O1  O2-  1.0000  0.593850  0.951680  0.331390  Uiso  0.025330
    O1  O2-  1.0000  0.097130  0.319240  0.486040  Uiso  0.025330
    O1  O2-  1.0000  0.220080  0.415610  0.441860  Uiso  0.025330
    O1  O2-  1.0000  0.343030  0.511980  0.397670  Uiso  0.025330
    O1  O2-  1.0000  0.465980  0.608350  0.353480  Uiso  0.025330
    O1  O2-  1.0000  0.588930  0.704730  0.309300  Uiso  0.025330
    O1  O2-  1.0000  0.711880  0.801100  0.265110  Uiso  0.025330
    O1  O2-  1.0000  0.834830  0.897470  0.220930  Uiso  0.025330
    O1  O2-  1.0000  0.957780  0.993850  0.176740  Uiso  0.025330
    O1  O2-  1.0000  0.092210  0.072280  0.463950  Uiso  0.025330
    O1  O2-  1.0000  0.215160  0.168650  0.419760  Uiso  0.025330
    O1  O2-  1.0000  0.338110  0.265030  0.375580  Uiso  0.025330
    O1  O2-  1.0000  0.461060  0.361400  0.331390  Uiso  0.025330
    O1  O2-  1.0000  0.584010  0.457770  0.287210  Uiso  0.025330
    O1  O2-  1.0000  0.706960  0.554140  0.243020  Uiso  0.025330
    O1  O2-  1.0000  0.829910  0.650520  0.198830  Uiso  0.025330
    O1  O2-  1.0000  0.952860  0.746890  0.154650  Uiso  0.025330
    O1  O2-  1.0000  0.333200  0.018070  0.353480  Uiso  0.025330
    O1  O2-  1.0000  0.456150  0.114440  0.309300  Uiso  0.025330
    O1  O2-  1.0000  0.579100  0.210820  0.265110  Uiso  0.025330
    O1  O2-  1.0000  0.702050  0.307190  0.220930  Uiso  0.025330
    O1  O2-  1.0000  0.825000  0.403560  0.176740  Uiso  0.025330
    O1  O2-  1.0000  0.947950  0.499930  0.132560  Uiso  0.025330
    O1  O2-  1.0000  0.697130  0.060230  0.198830  Uiso  0.025330
    O1  O2-  1.0000  0.820080  0.156610  0.154650  Uiso  0.025330
    O1  O2-  1.0000  0.943030  0.252980  0.110460  Uiso  0.025330
    O1  O2-  1.0000  0.938110  0.006020  0.088370  Uiso  0.025330
    O1  O2-  1.0000  0.106970  0.813150  0.397670  Uiso  0.025330
    O1  O2-  1.0000  0.229920  0.909520  0.353480  Uiso  0.025330
    O1  O2-  1.0000  0.102050  0.566190  0.375580  Uiso  0.025330
    O1  O2-  1.0000  0.225000  0.662560  0.331390  Uiso  0.025330
    O1  O2-  1.0000  0.347950  0.758940  0.287210  Uiso  0.025330
    O1  O2-  1.0000  0.470900  0.855310  0.243020  Uiso  0.025330
    O1  O2-  1.0000  0.593850  0.951680  0.198830  Uiso  0.025330
    O1  O2-  1.0000  0.097130  0.319240  0.353480  Uiso  0.025330
    O1  O2-  1.0000  0.220080  0.415610  0.309300  Uiso  0.025330
    O1  O2-  1.0000  0.343030  0.511980  0.265110  Uiso  0.025330
    O1  O2-  1.0000  0.465980  0.608350  0.220930  Uiso  0.025330
    O1  O2-  1.0000  0.588930  0.704730  0.176740  Uiso  0.025330
    O1  O2-  1.0000  0.711880  0.801100  0.132560  Uiso  0.025330
    O1  O2-  1.0000  0.834830  0.897470  0.088370  Uiso  0.025330
    O1  O2-  1.0000  0.957780  0.993850  0.044190  Uiso  0.025330
    O1  O2-  1.0000  0.092210  0.072280  0.331390  Uiso  0.025330
    O1  O2-  1.0000  0.215160  0.168650  0.287210  Uiso  0.025330
    O1  O2-  1.0000  0.338110  0.265030  0.243020  Uiso  0.025330
    O1  O2-  1.0000  0.461060  0.361400  0.198830  Uiso  0.025330
    O1  O2-  1.0000  0.584010  0.457770  0.154650  Uiso  0.025330
    O1  O2-  1.0000  0.706960  0.554140  0.110460  Uiso  0.025330
    O1  O2-  1.0000  0.829910  0.650520  0.066280  Uiso  0.025330
    O1  O2-  1.0000  0.952860  0.746890  0.022090  Uiso  0.025330
    O1  O2-  1.0000  0.333200  0.018070  0.220930  Uiso  0.025330
    O1  O2-  1.0000  0.456150  0.114440  0.176740  Uiso  0.025330
    O1  O2-  1.0000  0.579100  0.210820  0.132560  Uiso  0.025330
    O1  O2-  1.0000  0.702050  0.307190  0.088370  Uiso  0.025330
    O1  O2-  1.0000  0.825000  0.403560  0.044190  Uiso  0.025330
    O1  O2-  1.0000  0.947950  0.499930  0.000000  Uiso  0.025330
    O1  O2-  1.0000  0.697130  0.060230  0.066280  Uiso  0.025330
    O1  O2-  1.0000  0.820080  0.156610  0.022090  Uiso  0.025330
    O1  O2-  1.0000  0.106970  0.813150  0.265110  Uiso  0.025330
    O1  O2-  1.0000  0.229920  0.909520  0.220930  Uiso  0.025330
    O1  O2-  1.0000  0.102050  0.566190  0.243020  Uiso  0.025330
    O1  O2-  1.0000  0.225000  0.662560  0.198830  Uiso  0.025330
    O1  O2-  1.0000  0.347950  0.758940  0.154650  Uiso  0.025330
    O1  O2-  1.0000  0.470900  0.855310  0.110460  Uiso  0.025330
    O1  O2-  1.0000  0.593850  0.951680  0.066280  Uiso  0.025330
    O1  O2-  1.0000  0.097130  0.319240  0.220930  Uiso  0.025330
    O1  O2-  1.0000  0.220080  0.415610  0.176740  Uiso  0.025330
    O1  O2-  1.0000  0.343030  0.511980  0.132560  Uiso  0.025330
    O1  O2-  1.0000  0.465980  0.608350  0.088370  Uiso  0.025330
    O1  O2-  1.0000  0.588930  0.704730  0.044190  Uiso  0.025330
    O1  O2-  1.0000  0.711880  0.801100  0.000000  Uiso  0.025330
    O1  O2-  1.0000  0.092210  0.072280  0.198830  Uiso  0.025330
    O1  O2-  1.0000  0.215160  0.168650  0.154650  Uiso  0.025330
    O1  O2-  1.0000  0.338110  0.265030  0.110460  Uiso  0.025330
    O1  O2-  1.0000  0.461060  0.361400  0.066280  Uiso  0.025330
    O1  O2-  1.0000  0.584010  0.457770  0.022090  Uiso  0.025330
    O1  O2-  1.0000  0.333200  0.018070  0.088370  Uiso  0.025330
    O1  O2-  1.0000  0.456150  0.114440  0.044190  Uiso  0.025330
    O1  O2-  1.0000  0.579100  0.210820  0.000000  Uiso  0.025330
    O1  O2-  1.0000  0.106970  0.813150  0.132560  Uiso  0.025330
    O1  O2-  1.0000  0.229920  0.909520  0.088370  Uiso  0.025330
    O1  O2-  1.0000  0.102050  0.566190  0.110460  Uiso  0.025330
    O1  O2-  1.0000  0.225000  0.662560  0.066280  Uiso  0.025330
    O1  O2-  1.0000  0.347950  0.758940  0.022090  Uiso  0.025330
    O1  O2-  1.0000  0.097130  0.319240  0.088370  Uiso  0.025330
    O1  O2-  1.0000  0.220080  0.415610  0.044190  Uiso  0.025330
    O1  O2-  1.0000  0.343030  0.511980  0.000000  Uiso  0.025330
    O1  O2-  1.0000  0.092210  0.072280  0.066280  Uiso  0.025330
    O1  O2-  1.0000  0.215160  0.168650  0.022090  Uiso  0.025330
    O1  O2-  1.0000  0.106970  0.813150  0.000000  Uiso  0.025330
    O1  O2-  1.0000  0.945490  0.376460  0.983130  Uiso  0.025330
    O1  O2-  1.0000  0.940570  0.129500  0.961040  Uiso  0.025330
    O1  O2-  1.0000  0.709420  0.677620  0.983130  Uiso  0.025330
    O1  O2-  1.0000  0.832370  0.774000  0.938940  Uiso  0.025330
    O1  O2-  1.0000  0.955320  0.870370  0.894760  Uiso  0.025330
    O1  O2-  1.0000  0.704510  0.430670  0.961040  Uiso  0.025330
    O1  O2-  1.0000  0.827460  0.527040  0.916850  Uiso  0.025330
    O1  O2-  1.0000  0.950410  0.623410  0.872660  Uiso  0.025330
    O1  O2-  1.0000  0.576640  0.087340  0.983130  Uiso  0.025330
    O1  O2-  1.0000  0.699590  0.183710  0.938940  Uiso  0.025330
    O1  O2-  1.0000  0.822540  0.280080  0.894760  Uiso  0.025330
    O1  O2-  1.0000  0.945490  0.376460  0.850570  Uiso  0.025330
    O1  O2-  1.0000  0.817620  0.033130  0.872660  Uiso  0.025330
    O1  O2-  1.0000  0.940570  0.129500  0.828480  Uiso  0.025330
    O1  O2-  1.0000  0.473360  0.978790  0.983130  Uiso  0.025330
    O1  O2-  1.0000  0.468440  0.731830  0.961040  Uiso  0.025330
    O1  O2-  1.0000  0.591390  0.828210  0.916850  Uiso  0.025330
    O1  O2-  1.0000  0.714340  0.924580  0.872660  Uiso  0.025330
    O1  O2-  1.0000  0.340570  0.388500  0.983130  Uiso  0.025330
    O1  O2-  1.0000  0.463520  0.484880  0.938940  Uiso  0.025330
    O1  O2-  1.0000  0.586470  0.581250  0.894760  Uiso  0.025330
    O1  O2-  1.0000  0.709420  0.677620  0.850570  Uiso  0.025330
    O1  O2-  1.0000  0.832370  0.774000  0.806390  Uiso  0.025330
    O1  O2-  1.0000  0.955320  0.870370  0.762200  Uiso  0.025330
    O1  O2-  1.0000  0.335650  0.141550  0.961040  Uiso  0.025330
    O1  O2-  1.0000  0.458600  0.237920  0.916850  Uiso  0.025330
    O1  O2-  1.0000  0.581550  0.334290  0.872660  Uiso  0.025330
    O1  O2-  1.0000  0.704510  0.430670  0.828480  Uiso  0.025330
    O1  O2-  1.0000  0.827460  0.527040  0.784290  Uiso  0.025330
    O1  O2-  1.0000  0.950410  0.623410  0.740110  Uiso  0.025330
    O1  O2-  1.0000  0.576640  0.087340  0.850570  Uiso  0.025330
    O1  O2-  1.0000  0.699590  0.183710  0.806390  Uiso  0.025330
    O1  O2-  1.0000  0.822540  0.280080  0.762200  Uiso  0.025330
    O1  O2-  1.0000  0.945490  0.376460  0.718010  Uiso  0.025330
    O1  O2-  1.0000  0.817620  0.033130  0.740110  Uiso  0.025330
    O1  O2-  1.0000  0.940570  0.129500  0.695920  Uiso  0.025330
    O1  O2-  1.0000  0.104510  0.689670  0.983130  Uiso  0.025330
    O1  O2-  1.0000  0.227460  0.786040  0.938940  Uiso  0.025330
    O1  O2-  1.0000  0.350410  0.882410  0.894760  Uiso  0.025330
    O1  O2-  1.0000  0.473360  0.978790  0.850570  Uiso  0.025330
    O1  O2-  1.0000  0.099590  0.442710  0.961040  Uiso  0.025330
    O1  O2-  1.0000  0.222540  0.539090  0.916850  Uiso  0.025330
    O1  O2-  1.0000  0.345490  0.635460  0.872660  Uiso  0.025330
    O1  O2-  1.0000  0.468440  0.731830  0.828480  Uiso  0.025330
    O1  O2-  1.0000  0.591390  0.828210  0.784290  Uiso  0.025330
    O1  O2-  1.0000  0.714340  0.924580  0.740110  Uiso  0.025330
    O1  O2-  1.0000  0.094670  0.195760  0.938940  Uiso  0.025330
    O1  O2-  1.0000  0.217620  0.292130  0.894760  Uiso  0.025330
    O1  O2-  1.0000  0.340570  0.388500  0.850570  Uiso  0.025330
    O1  O2-  1.0000  0.463520  0.484880  0.806390  Uiso  0.025330
    O1  O2-  1.0000  0.586470  0.581250  0.762200  Uiso  0.025330
    O1  O2-  1.0000  0.709420  0.677620  0.718010  Uiso  0.025330
    O1  O2-  1.0000  0.832370  0.774000  0.673830  Uiso  0.025330
    O1  O2-  1.0000  0.955320  0.870370  0.629640  Uiso  0.025330
    O1  O2-  1.0000  0.212700  0.045170  0.872660  Uiso  0.025330
    O1  O2-  1.0000  0.335650  0.141550  0.828480  Uiso  0.025330
    O1  O2-  1.0000  0.458600  0.237920  0.784290  Uiso  0.025330
    O1  O2-  1.0000  0.581550  0.334290  0.740110  Uiso  0.025330
    O1  O2-  1.0000  0.704510  0.430670  0.695920  Uiso  0.025330
    O1  O2-  1.0000  0.827460  0.527040  0.651740  Uiso  0.025330
    O1  O2-  1.0000  0.950410  0.623410  0.607550  Uiso  0.025330
    O1  O2-  1.0000  0.576640  0.087340  0.718010  Uiso  0.025330
    O1  O2-  1.0000  0.699590  0.183710  0.673830  Uiso  0.025330
    O1  O2-  1.0000  0.822540  0.280080  0.629640  Uiso  0.025330
    O1  O2-  1.0000  0.945490  0.376460  0.585460  Uiso  0.025330
    O1  O2-  1.0000  0.817620  0.033130  0.607550  Uiso  0.025330
    O1  O2-  1.0000  0.940570  0.129500  0.563370  Uiso  0.025330
    O1  O2-  1.0000  0.109430  0.936620  0.872660  Uiso  0.025330
    O1  O2-  1.0000  0.104510  0.689670  0.850570  Uiso  0.025330
    O1  O2-  1.0000  0.227460  0.786040  0.806390  Uiso  0.025330
    O1  O2-  1.0000  0.350410  0.882410  0.762200  Uiso  0.025330
    O1  O2-  1.0000  0.473360  0.978790  0.718010  Uiso  0.025330
    O1  O2-  1.0000  0.099590  0.442710  0.828480  Uiso  0.025330
    O1  O2-  1.0000  0.222540  0.539090  0.784290  Uiso  0.025330
    O1  O2-  1.0000  0.345490  0.635460  0.740110  Uiso  0.025330
    O1  O2-  1.0000  0.468440  0.731830  0.695920  Uiso  0.025330
    O1  O2-  1.0000  0.591390  0.828210  0.651740  Uiso  0.025330
    O1  O2-  1.0000  0.714340  0.924580  0.607550  Uiso  0.025330
    O1  O2-  1.0000  0.094670  0.195760  0.806390  Uiso  0.025330
    O1  O2-  1.0000  0.217620  0.292130  0.762200  Uiso  0.025330
    O1  O2-  1.0000  0.340570  0.388500  0.718010  Uiso  0.025330
    O1  O2-  1.0000  0.463520  0.484880  0.673830  Uiso  0.025330
    O1  O2-  1.0000  0.586470  0.581250  0.629640  Uiso  0.025330
    O1  O2-  1.0000  0.709420  0.677620  0.585460  Uiso  0.025330
    O1  O2-  1.0000  0.832370  0.774000  0.541270  Uiso  0.025330
    O1  O2-  1.0000  0.955320  0.870370  0.497090  Uiso  0.025330
    O1  O2-  1.0000  0.212700  0.045170  0.740110  Uiso  0.025330
    O1  O2-  1.0000  0.335650  0.141550  0.695920  Uiso  0.025330
    O1  O2-  1.0000  0.458600  0.237920  0.651740  Uiso  0.025330
    O1  O2-  1.0000  0.581550  0.334290  0.607550  Uiso  0.025330
    O1  O2-  1.0000  0.704510  0.430670  0.563370  Uiso  0.025330
    O1  O2-  1.0000  0.827460  0.527040  0.519180  Uiso  0.025330
    O1  O2-  1.0000  0.950410  0.623410  0.474990  Uiso  0.025330
    O1  O2-  1.0000  0.576640  0.087340  0.585460  Uiso  0.025330
    O1  O2-  1.0000  0.699590  0.183710  0.541270  Uiso  0.025330
    O1  O2-  1.0000  0.822540  0.280080  0.497090  Uiso  0.025330
    O1  O2-  1.0000  0.945490  0.376460  0.452900  Uiso  0.025330
    O1  O2-  1.0000  0.817620  0.033130  0.474990  Uiso  0.025330
    O1  O2-  1.0000  0.940570  0.129500  0.430810  Uiso  0.025330
    O1  O2-  1.0000  0.109430  0.936620  0.740110  Uiso  0.025330
    O1  O2-  1.0000  0.104510  0.689670  0.718010  Uiso  0.025330
    O1  O2-  1.0000  0.227460  0.786040  0.673830  Uiso  0.025330
    O1  O2-  1.0000  0.350410  0.882410  0.629640  Uiso  0.025330
    O1  O2-  1.0000  0.473360  0.978790  0.585460  Uiso  0.025330
    O1  O2-  1.0000  0.099590  0.442710  0.695920  Uiso  0.025330
    O1  O2-  1.0000  0.222540  0.539090  0.651740  Uiso  0.025330
    O1  O2-  1.0000  0.345490  0.635460  0.607550  Uiso  0.025330
    O1  O2-  1.0000  0.468440  0.731830  0.563370  Uiso  0.025330
    O1  O2-  1.0000  0.591390  0.828210  0.519180  Uiso  0.025330
    O1  O2-  1.0000  0.714340  0.924580  0.474990  Uiso  0.025330
    O1  O2-  1.0000  0.094670  0.195760  0.673830  Uiso  0.025330
    O1  O2-  1.0000  0.217620  0.292130  0.629640  Uiso  0.025330
    O1  O2-  1.0000  0.340570  0.388500  0.585460  Uiso  0.025330
    O1  O2-  1.0000  0.463520  0.484880  0.541270  Uiso  0.025330
    O1  O2-  1.0000  0.586470  0.581250  0.497090  Uiso  0.025330
    O1  O2-  1.0000  0.709420  0.677620  0.452900  Uiso  0.025330
    O1  O2-  1.0000  0.832370  0.774000  0.408720  Uiso  0.025330
    O1  O2-  1.0000  0.955320  0.870370  0.364530  Uiso  0.025330
    O1  O2-  1.0000  0.212700  0.045170  0.607550  Uiso  0.025330
    O1  O2-  1.0000  0.335650  0.141550  0.563370  Uiso  0.025330
    O1  O2-  1.0000  0.458600  0.237920  0.519180  Uiso  0.025330
    O1  O2-  1.0000  0.581550  0.334290  0.474990  Uiso  0.025330
    O1  O2-  1.0000  0.704510  0.430670  0.430810  Uiso  0.025330
    O1  O2-  1.0000  0.827460  0.527040  0.386620  Uiso  0.025330
    O1  O2-  1.0000  0.950410  0.623410  0.342440  Uiso  0.025330
    O1  O2-  1.0000  0.576640  0.087340  0.452900  Uiso  0.025330
    O1  O2-  1.0000  0.699590  0.183710  0.408720  Uiso  0.025330
    O1  O2-  1.0000  0.822540  0.280080  0.364530  Uiso  0.025330
    O1  O2-  1.0000  0.945490  0.376460  0.320350  Uiso  0.025330
    O1  O2-  1.0000  0.817620  0.033130  0.342440  Uiso  0.025330
    O1  O2-  1.0000  0.940570  0.129500  0.298250  Uiso  0.025330
    O1  O2-  1.0000  0.109430  0.936620  0.607550  Uiso  0.025330
    O1  O2-  1.0000  0.104510  0.689670  0.585460  Uiso  0.025330
    O1  O2-  1.0000  0.227460  0.786040  0.541270  Uiso  0.025330
    O1  O2-  1.0000  0.350410  0.882410  0.497090  Uiso  0.025330
    O1  O2-  1.0000  0.473360  0.978790  0.452900  Uiso  0.025330
    O1  O2-  1.0000  0.099590  0.442710  0.563370  Uiso  0.025330
    O1  O2-  1.0000  0.222540  0.539090  0.519180  Uiso  0.025330
    O1  O2-  1.0000  0.345490  0.635460  0.474990  Uiso  0.025330
    O1  O2-  1.0000  0.468440  0.731830  0.430810  Uiso  0.025330
    O1  O2-  1.0000  0.591390  0.828210  0.386620  Uiso  0.025330
    O1  O2-  1.0000  0.714340  0.924580  0.342440  Uiso  0.025330
    O1  O2-  1.0000  0.094670  0.195760  0.541270  Uiso  0.025330
    O1  O2-  1.0000  0.217620  0.292130  0.497090  Uiso  0.025330
    O1  O2-  1.0000  0.340570  0.388500  0.452900  Uiso  0.025330
    O1  O2-  1.0000  0.463520  0.484880  0.408720  Uiso  0.025330
    O1  O2-  1.0000  0.586470  0.581250  0.364530  Uiso  0.025330
    O1  O2-  1.0000  0.709420  0.677620  0.320350  Uiso  0.025330
    O1  O2-  1.0000  0.832370  0.774000  0.276160  Uiso  0.025330
    O1  O2-  1.0000  0.955320  0.870370  0.231970  Uiso  0.025330
    O1  O2-  1.0000  0.212700  0.045170  0.474990  Uiso  0.025330
    O1  O2-  1.0000  0.335650  0.141550  0.430810  Uiso  0.025330
    O1  O2-  1.0000  0.458600  0.237920  0.386620  Uiso  0.025330
    O1  O2-  1.0000  0.581550  0.334290  0.342440  Uiso  0.025330
    O1  O2-  1.0000  0.704510  0.430670  0.298250  Uiso  0.025330
    O1  O2-  1.0000  0.827460  0.527040  0.254070  Uiso  0.025330
    O1  O2-  1.0000  0.950410  0.623410  0.209880  Uiso  0.025330
    O1  O2-  1.0000  0.576640  0.087340  0.320350  Uiso  0.025330
    O1  O2-  1.0000  0.699590  0.183710  0.276160  Uiso  0.025330
    O1  O2-  1.0000  0.822540  0.280080  0.231970  Uiso  0.025330
    O1  O2-  1.0000  0.945490  0.376460  0.187790  Uiso  0.025330
    O1  O2-  1.0000  0.817620  0.033130  0.209880  Uiso  0.025330
    O1  O2-  1.0000  0.940570  0.129500  0.165700  Uiso  0.025330
    O1  O2-  1.0000  0.109430  0.936620  0.474990  Uiso  0.025330
    O1  O2-  1.0000  0.104510  0.689670  0.452900  Uiso  0.025330
    O1  O2-  1.0000  0.227460  0.786040  0.408720  Uiso  0.025330
    O1  O2-  1.0000  0.350410  0.882410  0.364530  Uiso  0.025330
    O1  O2-  1.0000  0.473360  0.978790  0.320350  Uiso  0.025330
    O1  O2-  1.0000  0.099590  0.442710  0.430810  Uiso  0.025330
    O1  O2-  1.0000  0.222540  0.539090  0.386620  Uiso  0.025330
    O1  O2-  1.0000  0.345490  0.635460  0.342440  Uiso  0.025330
    O1  O2-  1.0000  0.468440  0.731830  0.298250  Uiso  0.025330
    O1  O2-  1.0000  0.591390  0.828210  0.254070  Uiso  0.025330
    O1  O2-  1.0000  0.714340  0.924580  0.209880  Uiso  0.025330
    O1  O2-  1.0000  0.094670  0.195760  0.408720  Uiso  0.025330
    O1  O2-  1.0000  0.217620  0.292130  0.364530  Uiso  0.025330
    O1  O2-  1.0000  0.340570  0.388500  0.320350  Uiso  0.025330
    O1  O2-  1.0000  0.463520  0.484880  0.276160  Uiso  0.025330
    O1  O2-  1.0000  0.586470  0.581250  0.231970  Uiso  0.025330
    O1  O2-  1.0000  0.709420  0.677620  0.187790  Uiso  0.025330
    O1  O2-  1.0000  0.832370  0.774000  0.143600  Uiso  0.025330
    O1  O2-  1.0000  0.955320  0.870370  0.099420  Uiso  0.025330
    O1  O2-  1.0000  0.212700  0.045170  0.342440  Uiso  0.025330
    O1  O2-  1.0000  0.335650  0.141550  0.298250  Uiso  0.025330
    O1  O2-  1.0000  0.458600  0.237920  0.254070  Uiso  0.025330
    O1  O2-  1.0000  0.581550  0.334290  0.209880  Uiso  0.025330
    O1  O2-  1.0000  0.704510  0.430670  0.165700  Uiso  0.025330
    O1  O2-  1.0000  0.827460  0.527040  0.121510  Uiso  0.025330
    O1  O2-  1.0000  0.950410  0.623410  0.077320  Uiso  0.025330
    O1  O2-  1.0000  0.576640  0.087340  0.187790  Uiso  0.025330
    O1  O2-  1.0000  0.699590  0.183710  0.143600  Uiso  0.025330
    O1  O2-  1.0000  0.822540  0.280080  0.099420  Uiso  0.025330
    O1  O2-  1.0000  0.945490  0.376460  0.055230  Uiso  0.025330
    O1  O2-  1.0000  0.817620  0.033130  0.077320  Uiso  0.025330
    O1  O2-  1.0000  0.940570  0.129500  0.033140  Uiso  0.025330
    O1  O2-  1.0000  0.109430  0.936620  0.342440  Uiso  0.025330
    O1  O2-  1.0000  0.104510  0.689670  0.320350  Uiso  0.025330
    O1  O2-  1.0000  0.227460  0.786040  0.276160  Uiso  0.025330
    O1  O2-  1.0000  0.350410  0.882410  0.231970  Uiso  0.025330
    O1  O2-  1.0000  0.473360  0.978790  0.187790  Uiso  0.025330
    O1  O2-  1.0000  0.099590  0.442710  0.298250  Uiso  0.025330
    O1  O2-  1.0000  0.222540  0.539090  0.254070  Uiso  0.025330
    O1  O2-  1.0000  0.345490  0.635460  0.209880  Uiso  0.025330
    O1  O2-  1.0000  0.468440  0.731830  0.165700  Uiso  0.025330
    O1  O2-  1.0000  0.591390  0.828210  0.121510  Uiso  0.025330
    O1  O2-  1.0000  0.714340  0.924580  0.077320  Uiso  0.025330
    O1  O2-  1.0000  0.094670  0.195760  0.276160  Uiso  0.025330
    O1  O2-  1.0000  0.217620  0.292130  0.231970  Uiso  0.025330
    O1  O2-  1.0000  0.340570  0.388500  0.187790  Uiso  0.025330
    O1  O2-  1.0000  0.463520  0.484880  0.143600  Uiso  0.025330
    O1  O2-  1.0000  0.586470  0.581250  0.099420  Uiso  0.025330
    O1  O2-  1.0000  0.709420  0.677620  0.055230  Uiso  0.025330
    O1  O2-  1.0000  0.832370  0.774000  0.011050  Uiso  0.025330
    O1  O2-  1.0000  0.212700  0.045170  0.209880  Uiso  0.025330
    O1  O2-  1.0000  0.335650  0.141550  0.165700  Uiso  0.025330
    O1  O2-  1.0000  0.458600  0.237920  0.121510  Uiso  0.025330
    O1  O2-  1.0000  0.581550  0.334290  0.077320  Uiso  0.025330
    O1  O2-  1.0000  0.704510  0.430670  0.033140  Uiso  0.025330
    O1  O2-  1.0000  0.576640  0.087340  0.055230  Uiso  0.025330
    O1  O2-  1.0000  0.699590  0.183710  0.011050  Uiso  0.025330
    O1  O2-  1.0000  0.109430  0.936620  0.209880  Uiso  0.025330
    O1  O2-  1.0000  0.104510  0.689670  0.187790  Uiso  0.025330
    O1  O2-  1.0000  0.227460  0.786040  0.143600  Uiso  0.025330
    O1  O2-  1.0000  0.350410  0.882410  0.099420  Uiso  0.025330
    O1  O2-  1.0000  0.473360  0.978790  0.055230  Uiso  0.025330
    O1  O2-  1.0000  0.099590  0.442710  0.165700  Uiso  0.025330
    O1  O2-  1.0000  0.222540  0.539090  0.121510  Uiso  0.025330
    O1  O2-  1.0000  0.345490  0.635460  0.077320  Uiso  0.025330
    O1  O2-  1.0000  0.468440  0.731830  0.033140  Uiso  0.025330
    O1  O2-  1.0000  0.094670  0.195760  0.143600  Uiso  0.025330
    O1  O2-  1.0000  0.217620  0.292130  0.099420  Uiso  0.025330
    O1  O2-  1.0000  0.340570  0.388500  0.055230  Uiso  0.025330
    O1  O2-  1.0000  0.463520  0.484880  0.011050  Uiso  0.025330
    O1  O2-  1.0000  0.212700  0.045170  0.077320  Uiso  0.025330
    O1  O2-  1.0000  0.335650  0.141550  0.033140  Uiso  0.025330
    O1  O2-  1.0000  0.109430  0.936620  0.077320  Uiso  0.025330
    O1  O2-  1.0000  0.104510  0.689670  0.055230  Uiso  0.025330
    O1  O2-  1.0000  0.227460  0.786040  0.011050  Uiso  0.025330
    O1  O2-  1.0000  0.099590  0.442710  0.033140  Uiso  0.025330
    O1  O2-  1.0000  0.094670  0.195760  0.011050  Uiso  0.025330
    O1  O2-  1.0000  0.947950  0.499930  0.994170  Uiso  0.025330
    O1  O2-  1.0000  0.943030  0.252980  0.972080  Uiso  0.025330
    O1  O2-  1.0000  0.938110  0.006020  0.949990  Uiso  0.025330
    O1  O2-  1.0000  0.711880  0.801100  0.994170  Uiso  0.025330
    O1  O2-  1.0000  0.834830  0.897470  0.949990  Uiso  0.025330
    O1  O2-  1.0000  0.957780  0.993850  0.905800  Uiso  0.025330
    O1  O2-  1.0000  0.706960  0.554140  0.972080  Uiso  0.025330
    O1  O2-  1.0000  0.829910  0.650520  0.927900  Uiso  0.025330
    O1  O2-  1.0000  0.952860  0.746890  0.883710  Uiso  0.025330
    O1  O2-  1.0000  0.579100  0.210820  0.994170  Uiso  0.025330
    O1  O2-  1.0000  0.702050  0.307190  0.949990  Uiso  0.025330
    O1  O2-  1.0000  0.825000  0.403560  0.905800  Uiso  0.025330
    O1  O2-  1.0000  0.947950  0.499930  0.861620  Uiso  0.025330
    O1  O2-  1.0000  0.697130  0.060230  0.927900  Uiso  0.025330
    O1  O2-  1.0000  0.820080  0.156610  0.883710  Uiso  0.025330
    O1  O2-  1.0000  0.943030  0.252980  0.839530  Uiso  0.025330
    O1  O2-  1.0000  0.938110  0.006020  0.817430  Uiso  0.025330
    O1  O2-  1.0000  0.470900  0.855310  0.972080  Uiso  0.025330
    O1  O2-  1.0000  0.593850  0.951680  0.927900  Uiso  0.025330
    O1  O2-  1.0000  0.343030  0.511980  0.994170  Uiso  0.025330
    O1  O2-  1.0000  0.465980  0.608350  0.949990  Uiso  0.025330
    O1  O2-  1.0000  0.588930  0.704730  0.905800  Uiso  0.025330
    O1  O2-  1.0000  0.711880  0.801100  0.861620  Uiso  0.025330
    O1  O2-  1.0000  0.834830  0.897470  0.817430  Uiso  0.025330
    O1  O2-  1.0000  0.957780  0.993850  0.773250  Uiso  0.025330
    O1  O2-  1.0000  0.338110  0.265030  0.972080  Uiso  0.025330
    O1  O2-  1.0000  0.461060  0.361400  0.927900  Uiso  0.025330
    O1  O2-  1.0000  0.584010  0.457770  0.883710  Uiso  0.025330
    O1  O2-  1.0000  0.706960  0.554140  0.839530  Uiso  0.025330
    O1  O2-  1.0000  0.829910  0.650520  0.795340  Uiso  0.025330
    O1  O2-  1.0000  0.952860  0.746890  0.751150  Uiso  0.025330
    O1  O2-  1.0000  0.333200  0.018070  0.949990  Uiso  0.025330
    O1  O2-  1.0000  0.456150  0.114440  0.905800  Uiso  0.025330
    O1  O2-  1.0000  0.579100  0.210820  0.861620  Uiso  0.025330
    O1  O2-  1.0000  0.702050  0.307190  0.817430  Uiso  0.025330
    O1  O2-  1.0000  0.825000  0.403560  0.773250  Uiso  0.025330
    O1  O2-  1.0000  0.947950  0.499930  0.729060  Uiso  0.025330
    O1  O2-  1.0000  0.697130  0.060230  0.795340  Uiso  0.025330
    O1  O2-  1.0000  0.820080  0.156610  0.751150  Uiso  0.025330
    O1  O2-  1.0000  0.943030  0.252980  0.706970  Uiso  0.025330
    O1  O2-  1.0000  0.938110  0.006020  0.684880  Uiso  0.025330
    O1  O2-  1.0000  0.106970  0.813150  0.994170  Uiso  0.025330
    O1  O2-  1.0000  0.229920  0.909520  0.949990  Uiso  0.025330
    O1  O2-  1.0000  0.102050  0.566190  0.972080  Uiso  0.025330
    O1  O2-  1.0000  0.225000  0.662560  0.927900  Uiso  0.025330
    O1  O2-  1.0000  0.347950  0.758940  0.883710  Uiso  0.025330
    O1  O2-  1.0000  0.470900  0.855310  0.839530  Uiso  0.025330
    O1  O2-  1.0000  0.593850  0.951680  0.795340  Uiso  0.025330
    O1  O2-  1.0000  0.097130  0.319240  0.949990  Uiso  0.025330
    O1  O2-  1.0000  0.220080  0.415610  0.905800  Uiso  0.025330
    O1  O2-  1.0000  0.343030  0.511980  0.861620  Uiso  0.025330
    O1  O2-  1.0000  0.465980  0.608350  0.817430  Uiso  0.025330
    O1  O2-  1.0000  0.588930  0.704730  0.773250  Uiso  0.025330
    O1  O2-  1.0000  0.711880  0.801100  0.729060  Uiso  0.025330
    O1  O2-  1.0000  0.834830  0.897470  0.684880  Uiso  0.025330
    O1  O2-  1.0000  0.957780  0.993850  0.640690  Uiso  0.025330
    O1  O2-  1.0000  0.092210  0.072280  0.927900  Uiso  0.025330
    O1  O2-  1.0000  0.215160  0.168650  0.883710  Uiso  0.025330
    O1  O2-  1.0000  0.338110  0.265030  0.839530  Uiso  0.025330
    O1  O2-  1.0000  0.461060  0.361400  0.795340  Uiso  0.025330
    O1  O2-  1.0000  0.584010  0.457770  0.751150  Uiso  0.025330
    O1  O2-  1.0000  0.706960  0.554140  0.706970  Uiso  0.025330
    O1  O2-  1.0000  0.829910  0.650520  0.662780  Uiso  0.025330
    O1  O2-  1.0000  0.952860  0.746890  0.618600  Uiso  0.025330
    O1  O2-  1.0000  0.333200  0.018070  0.817430  Uiso  0.025330
    O1  O2-  1.0000  0.456150  0.114440  0.773250  Uiso  0.025330
    O1  O2-  1.0000  0.579100  0.210820  0.729060  Uiso  0.025330
    O1  O2-  1.0000  0.702050  0.307190  0.684880  Uiso  0.025330
    O1  O2-  1.0000  0.825000  0.403560  0.640690  Uiso  0.025330
    O1  O2-  1.0000  0.947950  0.499930  0.596500  Uiso  0.025330
    O1  O2-  1.0000  0.697130  0.060230  0.662780  Uiso  0.025330
    O1  O2-  1.0000  0.820080  0.156610  0.618600  Uiso  0.025330
    O1  O2-  1.0000  0.943030  0.252980  0.574410  Uiso  0.025330
    O1  O2-  1.0000  0.938110  0.006020  0.552320  Uiso  0.025330
    O1  O2-  1.0000  0.106970  0.813150  0.861620  Uiso  0.025330
    O1  O2-  1.0000  0.229920  0.909520  0.817430  Uiso  0.025330
    O1  O2-  1.0000  0.102050  0.566190  0.839530  Uiso  0.025330
    O1  O2-  1.0000  0.225000  0.662560  0.795340  Uiso  0.025330
    O1  O2-  1.0000  0.347950  0.758940  0.751150  Uiso  0.025330
    O1  O2-  1.0000  0.470900  0.855310  0.706970  Uiso  0.025330
    O1  O2-  1.0000  0.593850  0.951680  0.662780  Uiso  0.025330
    O1  O2-  1.0000  0.097130  0.319240  0.817430  Uiso  0.025330
    O1  O2-  1.0000  0.220080  0.415610  0.773250  Uiso  0.025330
    O1  O2-  1.0000  0.343030  0.511980  0.729060  Uiso  0.025330
    O1  O2-  1.0000  0.465980  0.608350  0.684880  Uiso  0.025330
    O1  O2-  1.0000  0.588930  0.704730  0.640690  Uiso  0.025330
    O1  O2-  1.0000  0.711880  0.801100  0.596500  Uiso  0.025330
    O1  O2-  1.0000  0.834830  0.897470  0.552320  Uiso  0.025330
    O1  O2-  1.0000  0.957780  0.993850  0.508130  Uiso  0.025330
    O1  O2-  1.0000  0.092210  0.072280  0.795340  Uiso  0.025330
    O1  O2-  1.0000  0.215160  0.168650  0.751150  Uiso  0.025330
    O1  O2-  1.0000  0.338110  0.265030  0.706970  Uiso  0.025330
    O1  O2-  1.0000  0.461060  0.361400  0.662780  Uiso  0.025330
    O1  O2-  1.0000  0.584010  0.457770  0.618600  Uiso  0.025330
    O1  O2-  1.0000  0.706960  0.554140  0.574410  Uiso  0.025330
    O1  O2-  1.0000  0.829910  0.650520  0.530230  Uiso  0.025330
    O1  O2-  1.0000  0.952860  0.746890  0.486040  Uiso  0.025330
    O1  O2-  1.0000  0.333200  0.018070  0.684880  Uiso  0.025330
    O1  O2-  1.0000  0.456150  0.114440  0.640690  Uiso  0.025330
    O1  O2-  1.0000  0.579100  0.210820  0.596500  Uiso  0.025330
    O1  O2-  1.0000  0.702050  0.307190  0.552320  Uiso  0.025330
    O1  O2-  1.0000  0.825000  0.403560  0.508130  Uiso  0.025330
    O1  O2-  1.0000  0.947950  0.499930  0.463950  Uiso  0.025330
    O1  O2-  1.0000  0.697130  0.060230  0.530230  Uiso  0.025330
    O1  O2-  1.0000  0.820080  0.156610  0.486040  Uiso  0.025330
    O1  O2-  1.0000  0.943030  0.252980  0.441860  Uiso  0.025330
    O1  O2-  1.0000  0.938110  0.006020  0.419760  Uiso  0.025330
    O1  O2-  1.0000  0.106970  0.813150  0.729060  Uiso  0.025330
    O1  O2-  1.0000  0.229920  0.909520  0.684880  Uiso  0.025330
    O1  O2-  1.0000  0.102050  0.566190  0.706970  Uiso  0.025330
    O1  O2-  1.0000  0.225000  0.662560  0.662780  Uiso  0.025330
    O1  O2-  1.0000  0.347950  0.758940  0.618600  Uiso  0.025330
    O1  O2-  1.0000  0.470900  0.855310  0.574410  Uiso  0.025330
    O1  O2-  1.0000  0.593850  0.951680  0.530230  Uiso  0.025330
    O1  O2-  1.0000  0.097130  0.319240  0.684880  Uiso  0.025330
    O1  O2-  1.0000  0.220080  0.415610  0.640690  Uiso  0.025330
    O1  O2-  1.0000  0.343030  0.511980  0.596500  Uiso  0.025330
    O1  O2-  1.0000  0.465980  0.608350  0.552320  Uiso  0.025330
    O1  O2-  1.0000  0.588930  0.704730  0.508130  Uiso  0.025330
    O1  O2-  1.0000  0.711880  0.801100  0.463950  Uiso  0.025330
    O1  O2-  1.0000  0.834830  0.897470  0.419760  Uiso  0.025330
    O1  O2-  1.0000  0.957780  0.993850  0.375580  Uiso  0.025330
    O1  O2-  1.0000  0.092210  0.072280  0.662780  Uiso  0.025330
    O1  O2-  1.0000  0.215160  0.168650  0.618600  Uiso  0.025330
    O1  O2-  1.0000  0.338110  0.265030  0.574410  Uiso  0.025330
    O1  O2-  1.0000  0.461060  0.361400  0.530230  Uiso  0.025330
    O1  O2-  1.0000  0.584010  0.457770  0.486040  Uiso  0.025330
    O1  O2-  1.0000  0.706960  0.554140  0.441860  Uiso  0.025330
    O1  O2-  1.0000  0.829910  0.650520  0.397670  Uiso  0.025330
    O1  O2-  1.0000  0.952860  0.746890  0.353480  Uiso  0.025330
    O1  O2-  1.0000  0.333200  0.018070  0.552320  Uiso  0.025330
    O1  O2-  1.0000  0.456150  0.114440  0.508130  Uiso  0.025330
    O1  O2-  1.0000  0.579100  0.210820  0.463950  Uiso  0.025330
    O1  O2-  1.0000  0.702050  0.307190  0.419760  Uiso  0.025330
    O1  O2-  1.0000  0.825000  0.403560  0.375580  Uiso  0.025330
    O1  O2-  1.0000  0.947950  0.499930  0.331390  Uiso  0.025330
    O1  O2-  1.0000  0.697130  0.060230  0.397670  Uiso  0.025330
    O1  O2-  1.0000  0.820080  0.156610  0.353480  Uiso  0.025330
    O1  O2-  1.0000  0.943030  0.252980  0.309300  Uiso  0.025330
    O1  O2-  1.0000  0.938110  0.006020  0.287210  Uiso  0.025330
    O1  O2-  1.0000  0.106970  0.813150  0.596500  Uiso  0.025330
    O1  O2-  1.0000  0.229920  0.909520  0.552320  Uiso  0.025330
    O1  O2-  1.0000  0.102050  0.566190  0.574410  Uiso  0.025330
    O1  O2-  1.0000  0.225000  0.662560  0.530230  Uiso  0.025330
    O1  O2-  1.0000  0.347950  0.758940  0.486040  Uiso  0.025330
    O1  O2-  1.0000  0.470900  0.855310  0.441860  Uiso  0.025330
    O1  O2-  1.0000  0.593850  0.951680  0.397670  Uiso  0.025330
    O1  O2-  1.0000  0.097130  0.319240  0.552320  Uiso  0.025330
    O1  O2-  1.0000  0.220080  0.415610  0.508130  Uiso  0.025330
    O1  O2-  1.0000  0.343030  0.511980  0.463950  Uiso  0.025330
    O1  O2-  1.0000  0.465980  0.608350  0.419760  Uiso  0.025330
    O1  O2-  1.0000  0.588930  0.704730  0.375580  Uiso  0.025330
    O1  O2-  1.0000  0.711880  0.801100  0.331390  Uiso  0.025330
    O1  O2-  1.0000  0.834830  0.897470  0.287210  Uiso  0.025330
    O1  O2-  1.0000  0.957780  0.993850  0.243020  Uiso  0.025330
    O1  O2-  1.0000  0.092210  0.072280  0.530230  Uiso  0.025330
    O1  O2-  1.0000  0.215160  0.168650  0.486040  Uiso  0.025330
    O1  O2-  1.0000  0.338110  0.265030  0.441860  Uiso  0.025330
    O1  O2-  1.0000  0.461060  0.361400  0.397670  Uiso  0.025330
    O1  O2-  1.0000  0.584010  0.457770  0.353480  Uiso  0.025330
    O1  O2-  1.0000  0.706960  0.554140  0.309300  Uiso  0.025330
    O1  O2-  1.0000  0.829910  0.650520  0.265110  Uiso  0.025330
    O1  O2-  1.0000  0.952860  0.746890  0.220930  Uiso  0.025330
    O1  O2-  1.0000  0.333200  0.018070  0.419760  Uiso  0.025330
    O1  O2-  1.0000  0.456150  0.114440  0.375580  Uiso  0.025330
    O1  O2-  1.0000  0.579100  0.210820  0.331390  Uiso  0.025330
    O1  O2-  1.0000  0.702050  0.307190  0.287210  Uiso  0.025330
    O1  O2-  1.0000  0.825000  0.403560  0.243020  Uiso  0.025330
    O1  O2-  1.0000  0.947950  0.499930  0.198830  Uiso  0.025330
    O1  O2-  1.0000  0.697130  0.060230  0.265110  Uiso  0.025330
    O1  O2-  1.0000  0.820080  0.156610  0.220930  Uiso  0.025330
    O1  O2-  1.0000  0.943030  0.252980  0.176740  Uiso  0.025330
    O1  O2-  1.0000  0.938110  0.006020  0.154650  Uiso  0.025330
    O1  O2-  1.0000  0.106970  0.813150  0.463950  Uiso  0.025330
    O1  O2-  1.0000  0.229920  0.909520  0.419760  Uiso  0.025330
    O1  O2-  1.0000  0.102050  0.566190  0.441860  Uiso  0.025330
    O1  O2-  1.0000  0.225000  0.662560  0.397670  Uiso  0.025330
    O1  O2-  1.0000  0.347950  0.758940  0.353480  Uiso  0.025330
    O1  O2-  1.0000  0.470900  0.855310  0.309300  Uiso  0.025330
    O1  O2-  1.0000  0.593850  0.951680  0.265110  Uiso  0.025330
    O1  O2-  1.0000  0.097130  0.319240  0.419760  Uiso  0.025330
    O1  O2-  1.0000  0.220080  0.415610  0.375580  Uiso  0.025330
    O1  O2-  1.0000  0.343030  0.511980  0.331390  Uiso  0.025330
    O1  O2-  1.0000  0.465980  0.608350  0.287210  Uiso  0.025330
    O1  O2-  1.0000  0.588930  0.704730  0.243020  Uiso  0.025330
    O1  O2-  1.0000  0.711880  0.801100  0.198830  Uiso  0.025330
    O1  O2-  1.0000  0.834830  0.897470  0.154650  Uiso  0.025330
    O1  O2-  1.0000  0.957780  0.993850  0.110460  Uiso  0.025330
    O1  O2-  1.0000  0.092210  0.072280  0.397670  Uiso  0.025330
    O1  O2-  1.0000  0.215160  0.168650  0.353480  Uiso  0.025330
    O1  O2-  1.0000  0.338110  0.265030  0.309300  Uiso  0.025330
    O1  O2-  1.0000  0.461060  0.361400  0.265110  Uiso  0.025330
    O1  O2-  1.0000  0.584010  0.457770  0.220930  Uiso  0.025330
    O1  O2-  1.0000  0.706960  0.554140  0.176740  Uiso  0.025330
    O1  O2-  1.0000  0.829910  0.650520  0.132560  Uiso  0.025330
    O1  O2-  1.0000  0.952860  0.746890  0.088370  Uiso  0.025330
    O1  O2-  1.0000  0.333200  0.018070  0.287210  Uiso  0.025330
    O1  O2-  1.0000  0.456150  0.114440  0.243020  Uiso  0.025330
    O1  O2-  1.0000  0.579100  0.210820  0.198830  Uiso  0.025330
    O1  O2-  1.0000  0.702050  0.307190  0.154650  Uiso  0.025330
    O1  O2-  1.0000  0.825000  0.403560  0.110460  Uiso  0.025330
    O1  O2-  1.0000  0.947950  0.499930  0.066280  Uiso  0.025330
    O1  O2-  1.0000  0.697130  0.060230  0.132560  Uiso  0.025330
    O1  O2-  1.0000  0.820080  0.156610  0.088370  Uiso  0.025330
    O1  O2-  1.0000  0.943030  0.252980  0.044190  Uiso  0.025330
    O1  O2-  1.0000  0.938110  0.006020  0.022090  Uiso  0.025330
    O1  O2-  1.0000  0.106970  0.813150  0.331390  Uiso  0.025330
    O1  O2-  1.0000  0.229920  0.909520  0.287210  Uiso  0.025330
    O1  O2-  1.0000  0.102050  0.566190  0.309300  Uiso  0.025330
    O1  O2-  1.0000  0.225000  0.662560  0.265110  Uiso  0.025330
    O1  O2-  1.0000  0.347950  0.758940  0.220930  Uiso  0.025330
    O1  O2-  1.0000  0.470900  0.855310  0.176740  Uiso  0.025330
    O1  O2-  1.0000  0.593850  0.951680  0.132560  Uiso  0.025330
    O1  O2-  1.0000  0.097130  0.319240  0.287210  Uiso  0.025330
    O1  O2-  1.0000  0.220080  0.415610  0.243020  Uiso  0.025330
    O1  O2-  1.0000  0.343030  0.511980  0.198830  Uiso  0.025330
    O1  O2-  1.0000  0.465980  0.608350  0.154650  Uiso  0.025330
    O1  O2-  1.0000  0.588930  0.704730  0.110460  Uiso  0.025330
    O1  O2-  1.0000  0.711880  0.801100  0.066280  Uiso  0.025330
    O1  O2-  1.0000  0.834830  0.897470  0.022090  Uiso  0.025330
    O1  O2-  1.0000  0.092210  0.072280  0.265110  Uiso  0.025330
    O1  O2-  1.0000  0.215160  0.168650  0.220930  Uiso  0.025330
    O1  O2-  1.0000  0.338110  0.265030  0.176740  Uiso  0.025330
    O1  O2-  1.0000  0.461060  0.361400  0.132560  Uiso  0.025330
    O1  O2-  1.0000  0.584010  0.457770  0.088370  Uiso  0.025330
    O1  O2-  1.0000  0.706960  0.554140  0.044190  Uiso  0.025330
    O1  O2-  1.0000  0.829910  0.650520  0.000000  Uiso  0.025330
    O1  O2-  1.0000  0.333200  0.018070  0.154650  Uiso  0.025330
    O1  O2-  1.0000  0.456150  0.114440  0.110460  Uiso  0.025330
    O1  O2-  1.0000  0.579100  0.210820  0.066280  Uiso  0.025330
    O1  O2-  1.0000  0.702050  0.307190  0.022090  Uiso  0.025330
    O1  O2-  1.0000  0.697130  0.060230  0.000000  Uiso  0.025330
    O1  O2-  1.0000  0.106970  0.813150  0.198830  Uiso  0.025330
    O1  O2-  1.0000  0.229920  0.909520  0.154650  Uiso  0.025330
    O1  O2-  1.0000  0.102050  0.566190  0.176740  Uiso  0.025330
    O1  O2-  1.0000  0.225000  0.662560  0.132560  Uiso  0.025330
    O1  O2-  1.0000  0.347950  0.758940  0.088370  Uiso  0.025330
    O1  O2-  1.0000  0.470900  0.855310  0.044190  Uiso  0.025330
    O1  O2-  1.0000  0.593850  0.951680  0.000000  Uiso  0.025330
    O1  O2-  1.0000  0.097130  0.319240  0.154650  Uiso  0.025330
    O1  O2-  1.0000  0.220080  0.415610  0.110460  Uiso  0.025330
    O1  O2-  1.0000  0.343030  0.511980  0.066280  Uiso  0.025330
    O1  O2-  1.0000  0.465980  0.608350  0.022090  Uiso  0.025330
    O1  O2-  1.0000  0.092210  0.072280  0.132560  Uiso  0.025330
    O1  O2-  1.0000  0.215160  0.168650  0.088370  Uiso  0.025330
    O1  O2-  1.0000  0.338110  0.265030  0.044190  Uiso  0.025330
    O1  O2-  1.0000  0.461060  0.361400  0.000000  Uiso  0.025330
    O1  O2-  1.0000  0.333200  0.018070  0.022090  Uiso  0.025330
    O1  O2-  1.0000  0.106970  0.813150  0.066280  Uiso  0.025330
    O1  O2-  1.0000  0.229920  0.909520  0.022090  Uiso  0.025330
    O1  O2-  1.0000  0.102050  0.566190  0.044190  Uiso  0.025330
    O1  O2-  1.0000  0.225000  0.662560  0.000000  Uiso  0.025330
    O1  O2-  1.0000  0.097130  0.319240  0.022090  Uiso  0.025330
    O1  O2-  1.0000  0.092210  0.072280  0.000000  Uiso  0.025330
    O1  O2-  1.0000  0.879090  0.081310  0.983130  Uiso  0.025330
    O1  O2-  1.0000  0.775820  0.972760  0.983130  Uiso  0.025330
    O1  O2-  1.0000  0.770900  0.725810  0.961040  Uiso  0.025330
    O1  O2-  1.0000  0.893850  0.822180  0.916850  Uiso  0.025330
    O1  O2-  1.0000  0.643030  0.382480  0.983130  Uiso  0.025330
    O1  O2-  1.0000  0.765980  0.478850  0.938940  Uiso  0.025330
    O1  O2-  1.0000  0.888930  0.575230  0.894760  Uiso  0.025330
    O1  O2-  1.0000  0.638110  0.135520  0.961040  Uiso  0.025330
    O1  O2-  1.0000  0.761060  0.231900  0.916850  Uiso  0.025330
    O1  O2-  1.0000  0.884010  0.328270  0.872660  Uiso  0.025330
    O1  O2-  1.0000  0.879090  0.081310  0.850570  Uiso  0.025330
    O1  O2-  1.0000  0.406970  0.683650  0.983130  Uiso  0.025330
    O1  O2-  1.0000  0.529920  0.780020  0.938940  Uiso  0.025330
    O1  O2-  1.0000  0.652870  0.876390  0.894760  Uiso  0.025330
    O1  O2-  1.0000  0.775820  0.972760  0.850570  Uiso  0.025330
    O1  O2-  1.0000  0.402050  0.436690  0.961040  Uiso  0.025330
    O1  O2-  1.0000  0.525000  0.533060  0.916850  Uiso  0.025330
    O1  O2-  1.0000  0.647950  0.629440  0.872660  Uiso  0.025330
    O1  O2-  1.0000  0.770900  0.725810  0.828480  Uiso  0.025330
    O1  O2-  1.0000  0.893850  0.822180  0.784290  Uiso  0.025330
    O1  O2-  1.0000  0.274180  0.093360  0.983130  Uiso  0.025330
    O1  O2-  1.0000  0.397130  0.189730  0.938940  Uiso  0.025330
    O1  O2-  1.0000  0.520080  0.286110  0.894760  Uiso  0.025330
    O1  O2-  1.0000  0.643030  0.382480  0.850570  Uiso  0.025330
    O1  O2-  1.0000  0.765980  0.478850  0.806390  Uiso  0.025330
    O1  O2-  1.0000  0.888930  0.575230  0.762200  Uiso  0.025330
    O1  O2-  1.0000  0.515160  0.039150  0.872660  Uiso  0.025330
    O1  O2-  1.0000  0.638110  0.135520  0.828480  Uiso  0.025330
    O1  O2-  1.0000  0.761060  0.231900  0.784290  Uiso  0.025330
    O1  O2-  1.0000  0.884010  0.328270  0.740110  Uiso  0.025330
    O1  O2-  1.0000  0.879090  0.081310  0.718010  Uiso  0.025330
    O1  O2-  1.0000  0.170900  0.984810  0.983130  Uiso  0.025330
    O1  O2-  1.0000  0.165980  0.737860  0.961040  Uiso  0.025330
    O1  O2-  1.0000  0.288930  0.834230  0.916850  Uiso  0.025330
    O1  O2-  1.0000  0.411880  0.930600  0.872660  Uiso  0.025330
    O1  O2-  1.0000  0.038110  0.394530  0.983130  Uiso  0.025330
    O1  O2-  1.0000  0.161060  0.490900  0.938940  Uiso  0.025330
    O1  O2-  1.0000  0.284020  0.587270  0.894760  Uiso  0.025330
    O1  O2-  1.0000  0.406970  0.683650  0.850570  Uiso  0.025330
    O1  O2-  1.0000  0.529920  0.780020  0.806390  Uiso  0.025330
    O1  O2-  1.0000  0.652870  0.876390  0.762200  Uiso  0.025330
    O1  O2-  1.0000  0.775820  0.972760  0.718010  Uiso  0.025330
    O1  O2-  1.0000  0.033200  0.147570  0.961040  Uiso  0.025330
    O1  O2-  1.0000  0.156150  0.243940  0.916850  Uiso  0.025330
    O1  O2-  1.0000  0.279100  0.340320  0.872660  Uiso  0.025330
    O1  O2-  1.0000  0.402050  0.436690  0.828480  Uiso  0.025330
    O1  O2-  1.0000  0.525000  0.533060  0.784290  Uiso  0.025330
    O1  O2-  1.0000  0.647950  0.629440  0.740110  Uiso  0.025330
    O1  O2-  1.0000  0.770900  0.725810  0.695920  Uiso  0.025330
    O1  O2-  1.0000  0.893850  0.822180  0.651740  Uiso  0.025330
    O1  O2-  1.0000  0.274180  0.093360  0.850570  Uiso  0.025330
    O1  O2-  1.0000  0.397130  0.189730  0.806390  Uiso  0.025330
    O1  O2-  1.0000  0.520080  0.286110  0.762200  Uiso  0.025330
    O1  O2-  1.0000  0.643030  0.382480  0.718010  Uiso  0.025330
    O1  O2-  1.0000  0.765980  0.478850  0.673830  Uiso  0.025330
    O1  O2-  1.0000  0.888930  0.575230  0.629640  Uiso  0.025330
    O1  O2-  1.0000  0.515160  0.039150  0.740110  Uiso  0.025330
    O1  O2-  1.0000  0.638110  0.135520  0.695920  Uiso  0.025330
    O1  O2-  1.0000  0.761060  0.231900  0.651740  Uiso  0.025330
    O1  O2-  1.0000  0.884010  0.328270  0.607550  Uiso  0.025330
    O1  O2-  1.0000  0.879090  0.081310  0.585460  Uiso  0.025330
    O1  O2-  1.0000  0.047950  0.888440  0.894760  Uiso  0.025330
    O1  O2-  1.0000  0.170900  0.984810  0.850570  Uiso  0.025330
    O1  O2-  1.0000  0.043030  0.641480  0.872660  Uiso  0.025330
    O1  O2-  1.0000  0.165980  0.737860  0.828480  Uiso  0.025330
    O1  O2-  1.0000  0.288930  0.834230  0.784290  Uiso  0.025330
    O1  O2-  1.0000  0.411880  0.930600  0.740110  Uiso  0.025330
    O1  O2-  1.0000  0.038110  0.394530  0.850570  Uiso  0.025330
    O1  O2-  1.0000  0.161060  0.490900  0.806390  Uiso  0.025330
    O1  O2-  1.0000  0.284020  0.587270  0.762200  Uiso  0.025330
    O1  O2-  1.0000  0.406970  0.683650  0.718010  Uiso  0.025330
    O1  O2-  1.0000  0.529920  0.780020  0.673830  Uiso  0.025330
    O1  O2-  1.0000  0.652870  0.876390  0.629640  Uiso  0.025330
    O1  O2-  1.0000  0.775820  0.972760  0.585460  Uiso  0.025330
    O1  O2-  1.0000  0.033200  0.147570  0.828480  Uiso  0.025330
    O1  O2-  1.0000  0.156150  0.243940  0.784290  Uiso  0.025330
    O1  O2-  1.0000  0.279100  0.340320  0.740110  Uiso  0.025330
    O1  O2-  1.0000  0.402050  0.436690  0.695920  Uiso  0.025330
    O1  O2-  1.0000  0.525000  0.533060  0.651740  Uiso  0.025330
    O1  O2-  1.0000  0.647950  0.629440  0.607550  Uiso  0.025330
    O1  O2-  1.0000  0.770900  0.725810  0.563370  Uiso  0.025330
    O1  O2-  1.0000  0.893850  0.822180  0.519180  Uiso  0.025330
    O1  O2-  1.0000  0.274180  0.093360  0.718010  Uiso  0.025330
    O1  O2-  1.0000  0.397130  0.189730  0.673830  Uiso  0.025330
    O1  O2-  1.0000  0.520080  0.286110  0.629640  Uiso  0.025330
    O1  O2-  1.0000  0.643030  0.382480  0.585460  Uiso  0.025330
    O1  O2-  1.0000  0.765980  0.478850  0.541270  Uiso  0.025330
    O1  O2-  1.0000  0.888930  0.575230  0.497090  Uiso  0.025330
    O1  O2-  1.0000  0.515160  0.039150  0.607550  Uiso  0.025330
    O1  O2-  1.0000  0.638110  0.135520  0.563370  Uiso  0.025330
    O1  O2-  1.0000  0.761060  0.231900  0.519180  Uiso  0.025330
    O1  O2-  1.0000  0.884010  0.328270  0.474990  Uiso  0.025330
    O1  O2-  1.0000  0.879090  0.081310  0.452900  Uiso  0.025330
    O1  O2-  1.0000  0.047950  0.888440  0.762200  Uiso  0.025330
    O1  O2-  1.0000  0.170900  0.984810  0.718010  Uiso  0.025330
    O1  O2-  1.0000  0.043030  0.641480  0.740110  Uiso  0.025330
    O1  O2-  1.0000  0.165980  0.737860  0.695920  Uiso  0.025330
    O1  O2-  1.0000  0.288930  0.834230  0.651740  Uiso  0.025330
    O1  O2-  1.0000  0.411880  0.930600  0.607550  Uiso  0.025330
    O1  O2-  1.0000  0.038110  0.394530  0.718010  Uiso  0.025330
    O1  O2-  1.0000  0.161060  0.490900  0.673830  Uiso  0.025330
    O1  O2-  1.0000  0.284020  0.587270  0.629640  Uiso  0.025330
    O1  O2-  1.0000  0.406970  0.683650  0.585460  Uiso  0.025330
    O1  O2-  1.0000  0.529920  0.780020  0.541270  Uiso  0.025330
    O1  O2-  1.0000  0.652870  0.876390  0.497090  Uiso  0.025330
    O1  O2-  1.0000  0.775820  0.972760  0.452900  Uiso  0.025330
    O1  O2-  1.0000  0.033200  0.147570  0.695920  Uiso  0.025330
    O1  O2-  1.0000  0.156150  0.243940  0.651740  Uiso  0.025330
    O1  O2-  1.0000  0.279100  0.340320  0.607550  Uiso  0.025330
    O1  O2-  1.0000  0.402050  0.436690  0.563370  Uiso  0.025330
    O1  O2-  1.0000  0.525000  0.533060  0.519180  Uiso  0.025330
    O1  O2-  1.0000  0.647950  0.629440  0.474990  Uiso  0.025330
    O1  O2-  1.0000  0.770900  0.725810  0.430810  Uiso  0.025330
    O1  O2-  1.0000  0.893850  0.822180  0.386620  Uiso  0.025330
    O1  O2-  1.0000  0.274180  0.093360  0.585460  Uiso  0.025330
    O1  O2-  1.0000  0.397130  0.189730  0.541270  Uiso  0.025330
    O1  O2-  1.0000  0.520080  0.286110  0.497090  Uiso  0.025330
    O1  O2-  1.0000  0.643030  0.382480  0.452900  Uiso  0.025330
    O1  O2-  1.0000  0.765980  0.478850  0.408720  Uiso  0.025330
    O1  O2-  1.0000  0.888930  0.575230  0.364530  Uiso  0.025330
    O1  O2-  1.0000  0.515160  0.039150  0.474990  Uiso  0.025330
    O1  O2-  1.0000  0.638110  0.135520  0.430810  Uiso  0.025330
    O1  O2-  1.0000  0.761060  0.231900  0.386620  Uiso  0.025330
    O1  O2-  1.0000  0.884010  0.328270  0.342440  Uiso  0.025330
    O1  O2-  1.0000  0.879090  0.081310  0.320350  Uiso  0.025330
    O1  O2-  1.0000  0.047950  0.888440  0.629640  Uiso  0.025330
    O1  O2-  1.0000  0.170900  0.984810  0.585460  Uiso  0.025330
    O1  O2-  1.0000  0.043030  0.641480  0.607550  Uiso  0.025330
    O1  O2-  1.0000  0.165980  0.737860  0.563370  Uiso  0.025330
    O1  O2-  1.0000  0.288930  0.834230  0.519180  Uiso  0.025330
    O1  O2-  1.0000  0.411880  0.930600  0.474990  Uiso  0.025330
    O1  O2-  1.0000  0.038110  0.394530  0.585460  Uiso  0.025330
    O1  O2-  1.0000  0.161060  0.490900  0.541270  Uiso  0.025330
    O1  O2-  1.0000  0.284020  0.587270  0.497090  Uiso  0.025330
    O1  O2-  1.0000  0.406970  0.683650  0.452900  Uiso  0.025330
    O1  O2-  1.0000  0.529920  0.780020  0.408720  Uiso  0.025330
    O1  O2-  1.0000  0.652870  0.876390  0.364530  Uiso  0.025330
    O1  O2-  1.0000  0.775820  0.972760  0.320350  Uiso  0.025330
    O1  O2-  1.0000  0.033200  0.147570  0.563370  Uiso  0.025330
    O1  O2-  1.0000  0.156150  0.243940  0.519180  Uiso  0.025330
    O1  O2-  1.0000  0.279100  0.340320  0.474990  Uiso  0.025330
    O1  O2-  1.0000  0.402050  0.436690  0.430810  Uiso  0.025330
    O1  O2-  1.0000  0.525000  0.533060  0.386620  Uiso  0.025330
    O1  O2-  1.0000  0.647950  0.629440  0.342440  Uiso  0.025330
    O1  O2-  1.0000  0.770900  0.725810  0.298250  Uiso  0.025330
    O1  O2-  1.0000  0.893850  0.822180  0.254070  Uiso  0.025330
    O1  O2-  1.0000  0.274180  0.093360  0.452900  Uiso  0.025330
    O1  O2-  1.0000  0.397130  0.189730  0.408720  Uiso  0.025330
    O1  O2-  1.0000  0.520080  0.286110  0.364530  Uiso  0.025330
    O1  O2-  1.0000  0.643030  0.382480  0.320350  Uiso  0.025330
    O1  O2-  1.0000  0.765980  0.478850  0.276160  Uiso  0.025330
    O1  O2-  1.0000  0.888930  0.575230  0.231970  Uiso  0.025330
    O1  O2-  1.0000  0.515160  0.039150  0.342440  Uiso  0.025330
    O1  O2-  1.0000  0.638110  0.135520  0.298250  Uiso  0.025330
    O1  O2-  1.0000  0.761060  0.231900  0.254070  Uiso  0.025330
    O1  O2-  1.0000  0.884010  0.328270  0.209880  Uiso  0.025330
    O1  O2-  1.0000  0.879090  0.081310  0.187790  Uiso  0.025330
    O1  O2-  1.0000  0.047950  0.888440  0.497090  Uiso  0.025330
    O1  O2-  1.0000  0.170900  0.984810  0.452900  Uiso  0.025330
    O1  O2-  1.0000  0.043030  0.641480  0.474990  Uiso  0.025330
    O1  O2-  1.0000  0.165980  0.737860  0.430810  Uiso  0.025330
    O1  O2-  1.0000  0.288930  0.834230  0.386620  Uiso  0.025330
    O1  O2-  1.0000  0.411880  0.930600  0.342440  Uiso  0.025330
    O1  O2-  1.0000  0.038110  0.394530  0.452900  Uiso  0.025330
    O1  O2-  1.0000  0.161060  0.490900  0.408720  Uiso  0.025330
    O1  O2-  1.0000  0.284020  0.587270  0.364530  Uiso  0.025330
    O1  O2-  1.0000  0.406970  0.683650  0.320350  Uiso  0.025330
    O1  O2-  1.0000  0.529920  0.780020  0.276160  Uiso  0.025330
    O1  O2-  1.0000  0.652870  0.876390  0.231970  Uiso  0.025330
    O1  O2-  1.0000  0.775820  0.972760  0.187790  Uiso  0.025330
    O1  O2-  1.0000  0.033200  0.147570  0.430810  Uiso  0.025330
    O1  O2-  1.0000  0.156150  0.243940  0.386620  Uiso  0.025330
    O1  O2-  1.0000  0.279100  0.340320  0.342440  Uiso  0.025330
    O1  O2-  1.0000  0.402050  0.436690  0.298250  Uiso  0.025330
    O1  O2-  1.0000  0.525000  0.533060  0.254070  Uiso  0.025330
    O1  O2-  1.0000  0.647950  0.629440  0.209880  Uiso  0.025330
    O1  O2-  1.0000  0.770900  0.725810  0.165700  Uiso  0.025330
    O1  O2-  1.0000  0.893850  0.822180  0.121510  Uiso  0.025330
    O1  O2-  1.0000  0.274180  0.093360  0.320350  Uiso  0.025330
    O1  O2-  1.0000  0.397130  0.189730  0.276160  Uiso  0.025330
    O1  O2-  1.0000  0.520080  0.286110  0.231970  Uiso  0.025330
    O1  O2-  1.0000  0.643030  0.382480  0.187790  Uiso  0.025330
    O1  O2-  1.0000  0.765980  0.478850  0.143600  Uiso  0.025330
    O1  O2-  1.0000  0.888930  0.575230  0.099420  Uiso  0.025330
    O1  O2-  1.0000  0.515160  0.039150  0.209880  Uiso  0.025330
    O1  O2-  1.0000  0.638110  0.135520  0.165700  Uiso  0.025330
    O1  O2-  1.0000  0.761060  0.231900  0.121510  Uiso  0.025330
    O1  O2-  1.0000  0.884010  0.328270  0.077320  Uiso  0.025330
    O1  O2-  1.0000  0.879090  0.081310  0.055230  Uiso  0.025330
    O1  O2-  1.0000  0.047950  0.888440  0.364530  Uiso  0.025330
    O1  O2-  1.0000  0.170900  0.984810  0.320350  Uiso  0.025330
    O1  O2-  1.0000  0.043030  0.641480  0.342440  Uiso  0.025330
    O1  O2-  1.0000  0.165980  0.737860  0.298250  Uiso  0.025330
    O1  O2-  1.0000  0.288930  0.834230  0.254070  Uiso  0.025330
    O1  O2-  1.0000  0.411880  0.930600  0.209880  Uiso  0.025330
    O1  O2-  1.0000  0.038110  0.394530  0.320350  Uiso  0.025330
    O1  O2-  1.0000  0.161060  0.490900  0.276160  Uiso  0.025330
    O1  O2-  1.0000  0.284020  0.587270  0.231970  Uiso  0.025330
    O1  O2-  1.0000  0.406970  0.683650  0.187790  Uiso  0.025330
    O1  O2-  1.0000  0.529920  0.780020  0.143600  Uiso  0.025330
    O1  O2-  1.0000  0.652870  0.876390  0.099420  Uiso  0.025330
    O1  O2-  1.0000  0.775820  0.972760  0.055230  Uiso  0.025330
    O1  O2-  1.0000  0.033200  0.147570  0.298250  Uiso  0.025330
    O1  O2-  1.0000  0.156150  0.243940  0.254070  Uiso  0.025330
    O1  O2-  1.0000  0.279100  0.340320  0.209880  Uiso  0.025330
    O1  O2-  1.0000  0.402050  0.436690  0.165700  Uiso  0.025330
    O1  O2-  1.0000  0.525000  0.533060  0.121510  Uiso  0.025330
    O1  O2-  1.0000  0.647950  0.629440  0.077320  Uiso  0.025330
    O1  O2-  1.0000  0.770900  0.725810  0.033140  Uiso  0.025330
    O1  O2-  1.0000  0.274180  0.093360  0.187790  Uiso  0.025330
    O1  O2-  1.0000  0.397130  0.189730  0.143600  Uiso  0.025330
    O1  O2-  1.0000  0.520080  0.286110  0.099420  Uiso  0.025330
    O1  O2-  1.0000  0.643030  0.382480  0.055230  Uiso  0.025330
    O1  O2-  1.0000  0.765980  0.478850  0.011050  Uiso  0.025330
    O1  O2-  1.0000  0.515160  0.039150  0.077320  Uiso  0.025330
    O1  O2-  1.0000  0.638110  0.135520  0.033140  Uiso  0.025330
    O1  O2-  1.0000  0.047950  0.888440  0.231970  Uiso  0.025330
    O1  O2-  1.0000  0.170900  0.984810  0.187790  Uiso  0.025330
    O1  O2-  1.0000  0.043030  0.641480  0.209880  Uiso  0.025330
    O1  O2-  1.0000  0.165980  0.737860  0.165700  Uiso  0.025330
    O1  O2-  1.0000  0.288930  0.834230  0.121510  Uiso  0.025330
    O1  O2-  1.0000  0.411880  0.930600  0.077320  Uiso  0.025330
    O1  O2-  1.0000  0.038110  0.394530  0.187790  Uiso  0.025330
    O1  O2-  1.0000  0.161060  0.490900  0.143600  Uiso  0.025330
    O1  O2-  1.0000  0.284020  0.587270  0.099420  Uiso  0.025330
    O1  O2-  1.0000  0.406970  0.683650  0.055230  Uiso  0.025330
    O1  O2-  1.0000  0.529920  0.780020  0.011050  Uiso  0.025330
    O1  O2-  1.0000  0.033200  0.147570  0.165700  Uiso  0.025330
    O1  O2-  1.0000  0.156150  0.243940  0.121510  Uiso  0.025330
    O1  O2-  1.0000  0.279100  0.340320  0.077320  Uiso  0.025330
    O1  O2-  1.0000  0.402050  0.436690  0.033140  Uiso  0.025330
    O1  O2-  1.0000  0.274180  0.093360  0.055230  Uiso  0.025330
    O1  O2-  1.0000  0.397130  0.189730  0.011050  Uiso  0.025330
    O1  O2-  1.0000  0.047950  0.888440  0.099420  Uiso  0.025330
    O1  O2-  1.0000  0.170900  0.984810  0.055230  Uiso  0.025330
    O1  O2-  1.0000  0.043030  0.641480  0.077320  Uiso  0.025330
    O1  O2-  1.0000  0.165980  0.737860  0.033140  Uiso  0.025330
    O1  O2-  1.0000  0.038110  0.394530  0.055230  Uiso  0.025330
    O1  O2-  1.0000  0.161060  0.490900  0.011050  Uiso  0.025330
    O1  O2-  1.0000  0.033200  0.147570  0.033140  Uiso  0.025330
    O1  O2-  1.0000  0.999590  0.054210  0.994170  Uiso  0.025330
    O1  O2-  1.0000  0.896310  0.945660  0.994170  Uiso  0.025330
    O1  O2-  1.0000  0.891390  0.698700  0.972080  Uiso  0.025330
    O1  O2-  1.0000  0.763520  0.355380  0.994170  Uiso  0.025330
    O1  O2-  1.0000  0.886470  0.451750  0.949990  Uiso  0.025330
    O1  O2-  1.0000  0.758600  0.108420  0.972080  Uiso  0.025330
    O1  O2-  1.0000  0.881550  0.204790  0.927900  Uiso  0.025330
    O1  O2-  1.0000  0.999590  0.054210  0.861620  Uiso  0.025330
    O1  O2-  1.0000  0.655320  0.999870  0.972080  Uiso  0.025330
    O1  O2-  1.0000  0.527460  0.656540  0.994170  Uiso  0.025330
    O1  O2-  1.0000  0.650410  0.752910  0.949990  Uiso  0.025330
    O1  O2-  1.0000  0.773360  0.849290  0.905800  Uiso  0.025330
    O1  O2-  1.0000  0.896310  0.945660  0.861620  Uiso  0.025330
    O1  O2-  1.0000  0.522540  0.409590  0.972080  Uiso  0.025330
    O1  O2-  1.0000  0.645490  0.505960  0.927900  Uiso  0.025330
    O1  O2-  1.0000  0.768440  0.602330  0.883710  Uiso  0.025330
    O1  O2-  1.0000  0.891390  0.698700  0.839530  Uiso  0.025330
    O1  O2-  1.0000  0.394670  0.066260  0.994170  Uiso  0.025330
    O1  O2-  1.0000  0.517620  0.162630  0.949990  Uiso  0.025330
    O1  O2-  1.0000  0.640570  0.259000  0.905800  Uiso  0.025330
    O1  O2-  1.0000  0.763520  0.355380  0.861620  Uiso  0.025330
    O1  O2-  1.0000  0.886470  0.451750  0.817430  Uiso  0.025330
    O1  O2-  1.0000  0.635650  0.012050  0.883710  Uiso  0.025330
    O1  O2-  1.0000  0.758600  0.108420  0.839530  Uiso  0.025330
    O1  O2-  1.0000  0.881550  0.204790  0.795340  Uiso  0.025330
    O1  O2-  1.0000  0.999590  0.054210  0.729060  Uiso  0.025330
    O1  O2-  1.0000  0.291390  0.957710  0.994170  Uiso  0.025330
    O1  O2-  1.0000  0.286470  0.710750  0.972080  Uiso  0.025330
    O1  O2-  1.0000  0.409420  0.807120  0.927900  Uiso  0.025330
    O1  O2-  1.0000  0.532370  0.903500  0.883710  Uiso  0.025330
    O1  O2-  1.0000  0.655320  0.999870  0.839530  Uiso  0.025330
    O1  O2-  1.0000  0.158610  0.367420  0.994170  Uiso  0.025330
    O1  O2-  1.0000  0.281560  0.463790  0.949990  Uiso  0.025330
    O1  O2-  1.0000  0.404510  0.560170  0.905800  Uiso  0.025330
    O1  O2-  1.0000  0.527460  0.656540  0.861620  Uiso  0.025330
    O1  O2-  1.0000  0.650410  0.752910  0.817430  Uiso  0.025330
    O1  O2-  1.0000  0.773360  0.849290  0.773250  Uiso  0.025330
    O1  O2-  1.0000  0.896310  0.945660  0.729060  Uiso  0.025330
    O1  O2-  1.0000  0.153690  0.120470  0.972080  Uiso  0.025330
    O1  O2-  1.0000  0.276640  0.216840  0.927900  Uiso  0.025330
    O1  O2-  1.0000  0.399590  0.313210  0.883710  Uiso  0.025330
    O1  O2-  1.0000  0.522540  0.409590  0.839530  Uiso  0.025330
    O1  O2-  1.0000  0.645490  0.505960  0.795340  Uiso  0.025330
    O1  O2-  1.0000  0.768440  0.602330  0.751150  Uiso  0.025330
    O1  O2-  1.0000  0.891390  0.698700  0.706970  Uiso  0.025330
    O1  O2-  1.0000  0.394670  0.066260  0.861620  Uiso  0.025330
    O1  O2-  1.0000  0.517620  0.162630  0.817430  Uiso  0.025330
    O1  O2-  1.0000  0.640570  0.259000  0.773250  Uiso  0.025330
    O1  O2-  1.0000  0.763520  0.355380  0.729060  Uiso  0.025330
    O1  O2-  1.0000  0.886470  0.451750  0.684880  Uiso  0.025330
    O1  O2-  1.0000  0.635650  0.012050  0.751150  Uiso  0.025330
    O1  O2-  1.0000  0.758600  0.108420  0.706970  Uiso  0.025330
    O1  O2-  1.0000  0.881550  0.204790  0.662780  Uiso  0.025330
    O1  O2-  1.0000  0.999590  0.054210  0.596500  Uiso  0.025330
    O1  O2-  1.0000  0.045490  0.764960  0.949990  Uiso  0.025330
    O1  O2-  1.0000  0.168440  0.861330  0.905800  Uiso  0.025330
    O1  O2-  1.0000  0.291390  0.957710  0.861620  Uiso  0.025330
    O1  O2-  1.0000  0.040570  0.518000  0.927900  Uiso  0.025330
    O1  O2-  1.0000  0.163520  0.614380  0.883710  Uiso  0.025330
    O1  O2-  1.0000  0.286470  0.710750  0.839530  Uiso  0.025330
    O1  O2-  1.0000  0.409420  0.807120  0.795340  Uiso  0.025330
    O1  O2-  1.0000  0.532370  0.903500  0.751150  Uiso  0.025330
    O1  O2-  1.0000  0.655320  0.999870  0.706970  Uiso  0.025330
    O1  O2-  1.0000  0.035660  0.271050  0.905800  Uiso  0.025330
    O1  O2-  1.0000  0.158610  0.367420  0.861620  Uiso  0.025330
    O1  O2-  1.0000  0.281560  0.463790  0.817430  Uiso  0.025330
    O1  O2-  1.0000  0.404510  0.560170  0.773250  Uiso  0.025330
    O1  O2-  1.0000  0.527460  0.656540  0.729060  Uiso  0.025330
    O1  O2-  1.0000  0.650410  0.752910  0.684880  Uiso  0.025330
    O1  O2-  1.0000  0.773360  0.849290  0.640690  Uiso  0.025330
    O1  O2-  1.0000  0.896310  0.945660  0.596500  Uiso  0.025330
    O1  O2-  1.0000  0.030740  0.024090  0.883710  Uiso  0.025330
    O1  O2-  1.0000  0.153690  0.120470  0.839530  Uiso  0.025330
    O1  O2-  1.0000  0.276640  0.216840  0.795340  Uiso  0.025330
    O1  O2-  1.0000  0.399590  0.313210  0.751150  Uiso  0.025330
    O1  O2-  1.0000  0.522540  0.409590  0.706970  Uiso  0.025330
    O1  O2-  1.0000  0.645490  0.505960  0.662780  Uiso  0.025330
    O1  O2-  1.0000  0.768440  0.602330  0.618600  Uiso  0.025330
    O1  O2-  1.0000  0.891390  0.698700  0.574410  Uiso  0.025330
    O1  O2-  1.0000  0.394670  0.066260  0.729060  Uiso  0.025330
    O1  O2-  1.0000  0.517620  0.162630  0.684880  Uiso  0.025330
    O1  O2-  1.0000  0.640570  0.259000  0.640690  Uiso  0.025330
    O1  O2-  1.0000  0.763520  0.355380  0.596500  Uiso  0.025330
    O1  O2-  1.0000  0.886470  0.451750  0.552320  Uiso  0.025330
    O1  O2-  1.0000  0.635650  0.012050  0.618600  Uiso  0.025330
    O1  O2-  1.0000  0.758600  0.108420  0.574410  Uiso  0.025330
    O1  O2-  1.0000  0.881550  0.204790  0.530230  Uiso  0.025330
    O1  O2-  1.0000  0.999590  0.054210  0.463950  Uiso  0.025330
    O1  O2-  1.0000  0.045490  0.764960  0.817430  Uiso  0.025330
    O1  O2-  1.0000  0.168440  0.861330  0.773250  Uiso  0.025330
    O1  O2-  1.0000  0.291390  0.957710  0.729060  Uiso  0.025330
    O1  O2-  1.0000  0.040570  0.518000  0.795340  Uiso  0.025330
    O1  O2-  1.0000  0.163520  0.614380  0.751150  Uiso  0.025330
    O1  O2-  1.0000  0.286470  0.710750  0.706970  Uiso  0.025330
    O1  O2-  1.0000  0.409420  0.807120  0.662780  Uiso  0.025330
    O1  O2-  1.0000  0.532370  0.903500  0.618600  Uiso  0.025330
    O1  O2-  1.0000  0.655320  0.999870  0.574410  Uiso  0.025330
    O1  O2-  1.0000  0.035660  0.271050  0.773250  Uiso  0.025330
    O1  O2-  1.0000  0.158610  0.367420  0.729060  Uiso  0.025330
    O1  O2-  1.0000  0.281560  0.463790  0.684880  Uiso  0.025330
    O1  O2-  1.0000  0.404510  0.560170  0.640690  Uiso  0.025330
    O1  O2-  1.0000  0.527460  0.656540  0.596500  Uiso  0.025330
    O1  O2-  1.0000  0.650410  0.752910  0.552320  Uiso  0.025330
    O1  O2-  1.0000  0.773360  0.849290  0.508130  Uiso  0.025330
    O1  O2-  1.0000  0.896310  0.945660  0.463950  Uiso  0.025330
    O1  O2-  1.0000  0.030740  0.024090  0.751150  Uiso  0.025330
    O1  O2-  1.0000  0.153690  0.120470  0.706970  Uiso  0.025330
    O1  O2-  1.0000  0.276640  0.216840  0.662780  Uiso  0.025330
    O1  O2-  1.0000  0.399590  0.313210  0.618600  Uiso  0.025330
    O1  O2-  1.0000  0.522540  0.409590  0.574410  Uiso  0.025330
    O1  O2-  1.0000  0.645490  0.505960  0.530230  Uiso  0.025330
    O1  O2-  1.0000  0.768440  0.602330  0.486040  Uiso  0.025330
    O1  O2-  1.0000  0.891390  0.698700  0.441860  Uiso  0.025330
    O1  O2-  1.0000  0.394670  0.066260  0.596500  Uiso  0.025330
    O1  O2-  1.0000  0.517620  0.162630  0.552320  Uiso  0.025330
    O1  O2-  1.0000  0.640570  0.259000  0.508130  Uiso  0.025330
    O1  O2-  1.0000  0.763520  0.355380  0.463950  Uiso  0.025330
    O1  O2-  1.0000  0.886470  0.451750  0.419760  Uiso  0.025330
    O1  O2-  1.0000  0.635650  0.012050  0.486040  Uiso  0.025330
    O1  O2-  1.0000  0.758600  0.108420  0.441860  Uiso  0.025330
    O1  O2-  1.0000  0.881550  0.204790  0.397670  Uiso  0.025330
    O1  O2-  1.0000  0.999590  0.054210  0.331390  Uiso  0.025330
    O1  O2-  1.0000  0.045490  0.764960  0.684880  Uiso  0.025330
    O1  O2-  1.0000  0.168440  0.861330  0.640690  Uiso  0.025330
    O1  O2-  1.0000  0.291390  0.957710  0.596500  Uiso  0.025330
    O1  O2-  1.0000  0.040570  0.518000  0.662780  Uiso  0.025330
    O1  O2-  1.0000  0.163520  0.614380  0.618600  Uiso  0.025330
    O1  O2-  1.0000  0.286470  0.710750  0.574410  Uiso  0.025330
    O1  O2-  1.0000  0.409420  0.807120  0.530230  Uiso  0.025330
    O1  O2-  1.0000  0.532370  0.903500  0.486040  Uiso  0.025330
    O1  O2-  1.0000  0.655320  0.999870  0.441860  Uiso  0.025330
    O1  O2-  1.0000  0.035660  0.271050  0.640690  Uiso  0.025330
    O1  O2-  1.0000  0.158610  0.367420  0.596500  Uiso  0.025330
    O1  O2-  1.0000  0.281560  0.463790  0.552320  Uiso  0.025330
    O1  O2-  1.0000  0.404510  0.560170  0.508130  Uiso  0.025330
    O1  O2-  1.0000  0.527460  0.656540  0.463950  Uiso  0.025330
    O1  O2-  1.0000  0.650410  0.752910  0.419760  Uiso  0.025330
    O1  O2-  1.0000  0.773360  0.849290  0.375580  Uiso  0.025330
    O1  O2-  1.0000  0.896310  0.945660  0.331390  Uiso  0.025330
    O1  O2-  1.0000  0.030740  0.024090  0.618600  Uiso  0.025330
    O1  O2-  1.0000  0.153690  0.120470  0.574410  Uiso  0.025330
    O1  O2-  1.0000  0.276640  0.216840  0.530230  Uiso  0.025330
    O1  O2-  1.0000  0.399590  0.313210  0.486040  Uiso  0.025330
    O1  O2-  1.0000  0.522540  0.409590  0.441860  Uiso  0.025330
    O1  O2-  1.0000  0.645490  0.505960  0.397670  Uiso  0.025330
    O1  O2-  1.0000  0.768440  0.602330  0.353480  Uiso  0.025330
    O1  O2-  1.0000  0.891390  0.698700  0.309300  Uiso  0.025330
    O1  O2-  1.0000  0.394670  0.066260  0.463950  Uiso  0.025330
    O1  O2-  1.0000  0.517620  0.162630  0.419760  Uiso  0.025330
    O1  O2-  1.0000  0.640570  0.259000  0.375580  Uiso  0.025330
    O1  O2-  1.0000  0.763520  0.355380  0.331390  Uiso  0.025330
    O1  O2-  1.0000  0.886470  0.451750  0.287210  Uiso  0.025330
    O1  O2-  1.0000  0.635650  0.012050  0.353480  Uiso  0.025330
    O1  O2-  1.0000  0.758600  0.108420  0.309300  Uiso  0.025330
    O1  O2-  1.0000  0.881550  0.204790  0.265110  Uiso  0.025330
    O1  O2-  1.0000  0.999590  0.054210  0.198830  Uiso  0.025330
    O1  O2-  1.0000  0.045490  0.764960  0.552320  Uiso  0.025330
    O1  O2-  1.0000  0.168440  0.861330  0.508130  Uiso  0.025330
    O1  O2-  1.0000  0.291390  0.957710  0.463950  Uiso  0.025330
    O1  O2-  1.0000  0.040570  0.518000  0.530230  Uiso  0.025330
    O1  O2-  1.0000  0.163520  0.614380  0.486040  Uiso  0.025330
    O1  O2-  1.0000  0.286470  0.710750  0.441860  Uiso  0.025330
    O1  O2-  1.0000  0.409420  0.807120  0.397670  Uiso  0.025330
    O1  O2-  1.0000  0.532370  0.903500  0.353480  Uiso  0.025330
    O1  O2-  1.0000  0.655320  0.999870  0.309300  Uiso  0.025330
    O1  O2-  1.0000  0.035660  0.271050  0.508130  Uiso  0.025330
    O1  O2-  1.0000  0.158610  0.367420  0.463950  Uiso  0.025330
    O1  O2-  1.0000  0.281560  0.463790  0.419760  Uiso  0.025330
    O1  O2-  1.0000  0.404510  0.560170  0.375580  Uiso  0.025330
    O1  O2-  1.0000  0.527460  0.656540  0.331390  Uiso  0.025330
    O1  O2-  1.0000  0.650410  0.752910  0.287210  Uiso  0.025330
    O1  O2-  1.0000  0.773360  0.849290  0.243020  Uiso  0.025330
    O1  O2-  1.0000  0.896310  0.945660  0.198830  Uiso  0.025330
    O1  O2-  1.0000  0.030740  0.024090  0.486040  Uiso  0.025330
    O1  O2-  1.0000  0.153690  0.120470  0.441860  Uiso  0.025330
    O1  O2-  1.0000  0.276640  0.216840  0.397670  Uiso  0.025330
    O1  O2-  1.0000  0.399590  0.313210  0.353480  Uiso  0.025330
    O1  O2-  1.0000  0.522540  0.409590  0.309300  Uiso  0.025330
    O1  O2-  1.0000  0.645490  0.505960  0.265110  Uiso  0.025330
    O1  O2-  1.0000  0.768440  0.602330  0.220930  Uiso  0.025330
    O1  O2-  1.0000  0.891390  0.698700  0.176740  Uiso  0.025330
    O1  O2-  1.0000  0.394670  0.066260  0.331390  Uiso  0.025330
    O1  O2-  1.0000  0.517620  0.162630  0.287210  Uiso  0.025330
    O1  O2-  1.0000  0.640570  0.259000  0.243020  Uiso  0.025330
    O1  O2-  1.0000  0.763520  0.355380  0.198830  Uiso  0.025330
    O1  O2-  1.0000  0.886470  0.451750  0.154650  Uiso  0.025330
    O1  O2-  1.0000  0.635650  0.012050  0.220930  Uiso  0.025330
    O1  O2-  1.0000  0.758600  0.108420  0.176740  Uiso  0.025330
    O1  O2-  1.0000  0.881550  0.204790  0.132560  Uiso  0.025330
    O1  O2-  1.0000  0.999590  0.054210  0.066280  Uiso  0.025330
    O1  O2-  1.0000  0.045490  0.764960  0.419760  Uiso  0.025330
    O1  O2-  1.0000  0.168440  0.861330  0.375580  Uiso  0.025330
    O1  O2-  1.0000  0.291390  0.957710  0.331390  Uiso  0.025330
    O1  O2-  1.0000  0.040570  0.518000  0.397670  Uiso  0.025330
    O1  O2-  1.0000  0.163520  0.614380  0.353480  Uiso  0.025330
    O1  O2-  1.0000  0.286470  0.710750  0.309300  Uiso  0.025330
    O1  O2-  1.0000  0.409420  0.807120  0.265110  Uiso  0.025330
    O1  O2-  1.0000  0.532370  0.903500  0.220930  Uiso  0.025330
    O1  O2-  1.0000  0.655320  0.999870  0.176740  Uiso  0.025330
    O1  O2-  1.0000  0.035660  0.271050  0.375580  Uiso  0.025330
    O1  O2-  1.0000  0.158610  0.367420  0.331390  Uiso  0.025330
    O1  O2-  1.0000  0.281560  0.463790  0.287210  Uiso  0.025330
    O1  O2-  1.0000  0.404510  0.560170  0.243020  Uiso  0.025330
    O1  O2-  1.0000  0.527460  0.656540  0.198830  Uiso  0.025330
    O1  O2-  1.0000  0.650410  0.752910  0.154650  Uiso  0.025330
    O1  O2-  1.0000  0.773360  0.849290  0.110460  Uiso  0.025330
    O1  O2-  1.0000  0.896310  0.945660  0.066280  Uiso  0.025330
    O1  O2-  1.0000  0.030740  0.024090  0.353480  Uiso  0.025330
    O1  O2-  1.0000  0.153690  0.120470  0.309300  Uiso  0.025330
    O1  O2-  1.0000  0.276640  0.216840  0.265110  Uiso  0.025330
    O1  O2-  1.0000  0.399590  0.313210  0.220930  Uiso  0.025330
    O1  O2-  1.0000  0.522540  0.409590  0.176740  Uiso  0.025330
    O1  O2-  1.0000  0.645490  0.505960  0.132560  Uiso  0.025330
    O1  O2-  1.0000  0.768440  0.602330  0.088370  Uiso  0.025330
    O1  O2-  1.0000  0.891390  0.698700  0.044190  Uiso  0.025330
    O1  O2-  1.0000  0.394670  0.066260  0.198830  Uiso  0.025330
    O1  O2-  1.0000  0.517620  0.162630  0.154650  Uiso  0.025330
    O1  O2-  1.0000  0.640570  0.259000  0.110460  Uiso  0.025330
    O1  O2-  1.0000  0.763520  0.355380  0.066280  Uiso  0.025330
    O1  O2-  1.0000  0.886470  0.451750  0.022090  Uiso  0.025330
    O1  O2-  1.0000  0.635650  0.012050  0.088370  Uiso  0.025330
    O1  O2-  1.0000  0.758600  0.108420  0.044190  Uiso  0.025330
    O1  O2-  1.0000  0.881550  0.204790  0.000000  Uiso  0.025330
    O1  O2-  1.0000  0.045490  0.764960  0.287210  Uiso  0.025330
    O1  O2-  1.0000  0.168440  0.861330  0.243020  Uiso  0.025330
    O1  O2-  1.0000  0.291390  0.957710  0.198830  Uiso  0.025330
    O1  O2-  1.0000  0.040570  0.518000  0.265110  Uiso  0.025330
    O1  O2-  1.0000  0.163520  0.614380  0.220930  Uiso  0.025330
    O1  O2-  1.0000  0.286470  0.710750  0.176740  Uiso  0.025330
    O1  O2-  1.0000  0.409420  0.807120  0.132560  Uiso  0.025330
    O1  O2-  1.0000  0.532370  0.903500  0.088370  Uiso  0.025330
    O1  O2-  1.0000  0.655320  0.999870  0.044190  Uiso  0.025330
    O1  O2-  1.0000  0.035660  0.271050  0.243020  Uiso  0.025330
    O1  O2-  1.0000  0.158610  0.367420  0.198830  Uiso  0.025330
    O1  O2-  1.0000  0.281560  0.463790  0.154650  Uiso  0.025330
    O1  O2-  1.0000  0.404510  0.560170  0.110460  Uiso  0.025330
    O1  O2-  1.0000  0.527460  0.656540  0.066280  Uiso  0.025330
    O1  O2-  1.0000  0.650410  0.752910  0.022090  Uiso  0.025330
    O1  O2-  1.0000  0.030740  0.024090  0.220930  Uiso  0.025330
    O1  O2-  1.0000  0.153690  0.120470  0.176740  Uiso  0.025330
    O1  O2-  1.0000  0.276640  0.216840  0.132560  Uiso  0.025330
    O1  O2-  1.0000  0.399590  0.313210  0.088370  Uiso  0.025330
    O1  O2-  1.0000  0.522540  0.409590  0.044190  Uiso  0.025330
    O1  O2-  1.0000  0.645490  0.505960  0.000000  Uiso  0.025330
    O1  O2-  1.0000  0.394670  0.066260  0.066280  Uiso  0.025330
    O1  O2-  1.0000  0.517620  0.162630  0.022090  Uiso  0.025330
    O1  O2-  1.0000  0.045490  0.764960  0.154650  Uiso  0.025330
    O1  O2-  1.0000  0.168440  0.861330  0.110460  Uiso  0.025330
    O1  O2-  1.0000  0.291390  0.957710  0.066280  Uiso  0.025330
    O1  O2-  1.0000  0.040570  0.518000  0.132560  Uiso  0.025330
    O1  O2-  1.0000  0.163520  0.614380  0.088370  Uiso  0.025330
    O1  O2-  1.0000  0.286470  0.710750  0.044190  Uiso  0.025330
    O1  O2-  1.0000  0.409420  0.807120  0.000000  Uiso  0.025330
    O1  O2-  1.0000  0.035660  0.271050  0.110460  Uiso  0.025330
    O1  O2-  1.0000  0.158610  0.367420  0.066280  Uiso  0.025330
    O1  O2-  1.0000  0.281560  0.463790  0.022090  Uiso  0.025330
    O1  O2-  1.0000  0.030740  0.024090  0.088370  Uiso  0.025330
    O1  O2-  1.0000  0.153690  0.120470  0.044190  Uiso  0.025330
    O1  O2-  1.0000  0.276640  0.216840  0.000000  Uiso  0.025330
    O1  O2-  1.0000  0.045490  0.764960  0.022090  Uiso  0.025330
    O1  O2-  1.0000  0.040570  0.518000  0.000000  Uiso  0.025330
    O1  O2-  1.0000  0.881550  0.204790  0.994170  Uiso  0.025330
    O1  O2-  1.0000  0.999590  0.054210  0.927900  Uiso  0.025330
    O1  O2-  1.0000  0.773360  0.849290  0.972080  Uiso  0.025330
    O1  O2-  1.0000  0.896310  0.945660  0.927900  Uiso  0.025330
    O1  O2-  1.0000  0.645490  0.505960  0.994170  Uiso  0.025330
    O1  O2-  1.0000  0.768440  0.602330  0.949990  Uiso  0.025330
    O1  O2-  1.0000  0.891390  0.698700  0.905800  Uiso  0.025330
    O1  O2-  1.0000  0.640570  0.259000  0.972080  Uiso  0.025330
    O1  O2-  1.0000  0.763520  0.355380  0.927900  Uiso  0.025330
    O1  O2-  1.0000  0.886470  0.451750  0.883710  Uiso  0.025330
    O1  O2-  1.0000  0.635650  0.012050  0.949990  Uiso  0.025330
    O1  O2-  1.0000  0.758600  0.108420  0.905800  Uiso  0.025330
    O1  O2-  1.0000  0.881550  0.204790  0.861620  Uiso  0.025330
    O1  O2-  1.0000  0.999590  0.054210  0.795340  Uiso  0.025330
    O1  O2-  1.0000  0.409420  0.807120  0.994170  Uiso  0.025330
    O1  O2-  1.0000  0.532370  0.903500  0.949990  Uiso  0.025330
    O1  O2-  1.0000  0.655320  0.999870  0.905800  Uiso  0.025330
    O1  O2-  1.0000  0.404510  0.560170  0.972080  Uiso  0.025330
    O1  O2-  1.0000  0.527460  0.656540  0.927900  Uiso  0.025330
    O1  O2-  1.0000  0.650410  0.752910  0.883710  Uiso  0.025330
    O1  O2-  1.0000  0.773360  0.849290  0.839530  Uiso  0.025330
    O1  O2-  1.0000  0.896310  0.945660  0.795340  Uiso  0.025330
    O1  O2-  1.0000  0.276640  0.216840  0.994170  Uiso  0.025330
    O1  O2-  1.0000  0.399590  0.313210  0.949990  Uiso  0.025330
    O1  O2-  1.0000  0.522540  0.409590  0.905800  Uiso  0.025330
    O1  O2-  1.0000  0.645490  0.505960  0.861620  Uiso  0.025330
    O1  O2-  1.0000  0.768440  0.602330  0.817430  Uiso  0.025330
    O1  O2-  1.0000  0.891390  0.698700  0.773250  Uiso  0.025330
    O1  O2-  1.0000  0.394670  0.066260  0.927900  Uiso  0.025330
    O1  O2-  1.0000  0.517620  0.162630  0.883710  Uiso  0.025330
    O1  O2-  1.0000  0.640570  0.259000  0.839530  Uiso  0.025330
    O1  O2-  1.0000  0.763520  0.355380  0.795340  Uiso  0.025330
    O1  O2-  1.0000  0.886470  0.451750  0.751150  Uiso  0.025330
    O1  O2-  1.0000  0.635650  0.012050  0.817430  Uiso  0.025330
    O1  O2-  1.0000  0.758600  0.108420  0.773250  Uiso  0.025330
    O1  O2-  1.0000  0.881550  0.204790  0.729060  Uiso  0.025330
    O1  O2-  1.0000  0.999590  0.054210  0.662780  Uiso  0.025330
    O1  O2-  1.0000  0.168440  0.861330  0.972080  Uiso  0.025330
    O1  O2-  1.0000  0.291390  0.957710  0.927900  Uiso  0.025330
    O1  O2-  1.0000  0.040570  0.518000  0.994170  Uiso  0.025330
    O1  O2-  1.0000  0.163520  0.614380  0.949990  Uiso  0.025330
    O1  O2-  1.0000  0.286470  0.710750  0.905800  Uiso  0.025330
    O1  O2-  1.0000  0.409420  0.807120  0.861620  Uiso  0.025330
    O1  O2-  1.0000  0.532370  0.903500  0.817430  Uiso  0.025330
    O1  O2-  1.0000  0.655320  0.999870  0.773250  Uiso  0.025330
    O1  O2-  1.0000  0.035660  0.271050  0.972080  Uiso  0.025330
    O1  O2-  1.0000  0.158610  0.367420  0.927900  Uiso  0.025330
    O1  O2-  1.0000  0.281560  0.463790  0.883710  Uiso  0.025330
    O1  O2-  1.0000  0.404510  0.560170  0.839530  Uiso  0.025330
    O1  O2-  1.0000  0.527460  0.656540  0.795340  Uiso  0.025330
    O1  O2-  1.0000  0.650410  0.752910  0.751150  Uiso  0.025330
    O1  O2-  1.0000  0.773360  0.849290  0.706970  Uiso  0.025330
    O1  O2-  1.0000  0.896310  0.945660  0.662780  Uiso  0.025330
    O1  O2-  1.0000  0.030740  0.024090  0.949990  Uiso  0.025330
    O1  O2-  1.0000  0.153690  0.120470  0.905800  Uiso  0.025330
    O1  O2-  1.0000  0.276640  0.216840  0.861620  Uiso  0.025330
    O1  O2-  1.0000  0.399590  0.313210  0.817430  Uiso  0.025330
    O1  O2-  1.0000  0.522540  0.409590  0.773250  Uiso  0.025330
    O1  O2-  1.0000  0.645490  0.505960  0.729060  Uiso  0.025330
    O1  O2-  1.0000  0.768440  0.602330  0.684880  Uiso  0.025330
    O1  O2-  1.0000  0.891390  0.698700  0.640690  Uiso  0.025330
    O1  O2-  1.0000  0.394670  0.066260  0.795340  Uiso  0.025330
    O1  O2-  1.0000  0.517620  0.162630  0.751150  Uiso  0.025330
    O1  O2-  1.0000  0.640570  0.259000  0.706970  Uiso  0.025330
    O1  O2-  1.0000  0.763520  0.355380  0.662780  Uiso  0.025330
    O1  O2-  1.0000  0.886470  0.451750  0.618600  Uiso  0.025330
    O1  O2-  1.0000  0.635650  0.012050  0.684880  Uiso  0.025330
    O1  O2-  1.0000  0.758600  0.108420  0.640690  Uiso  0.025330
    O1  O2-  1.0000  0.881550  0.204790  0.596500  Uiso  0.025330
    O1  O2-  1.0000  0.999590  0.054210  0.530230  Uiso  0.025330
    O1  O2-  1.0000  0.045490  0.764960  0.883710  Uiso  0.025330
    O1  O2-  1.0000  0.168440  0.861330  0.839530  Uiso  0.025330
    O1  O2-  1.0000  0.291390  0.957710  0.795340  Uiso  0.025330
    O1  O2-  1.0000  0.040570  0.518000  0.861620  Uiso  0.025330
    O1  O2-  1.0000  0.163520  0.614380  0.817430  Uiso  0.025330
    O1  O2-  1.0000  0.286470  0.710750  0.773250  Uiso  0.025330
    O1  O2-  1.0000  0.409420  0.807120  0.729060  Uiso  0.025330
    O1  O2-  1.0000  0.532370  0.903500  0.684880  Uiso  0.025330
    O1  O2-  1.0000  0.655320  0.999870  0.640690  Uiso  0.025330
    O1  O2-  1.0000  0.035660  0.271050  0.839530  Uiso  0.025330
    O1  O2-  1.0000  0.158610  0.367420  0.795340  Uiso  0.025330
    O1  O2-  1.0000  0.281560  0.463790  0.751150  Uiso  0.025330
    O1  O2-  1.0000  0.404510  0.560170  0.706970  Uiso  0.025330
    O1  O2-  1.0000  0.527460  0.656540  0.662780  Uiso  0.025330
    O1  O2-  1.0000  0.650410  0.752910  0.618600  Uiso  0.025330
    O1  O2-  1.0000  0.773360  0.849290  0.574410  Uiso  0.025330
    O1  O2-  1.0000  0.896310  0.945660  0.530230  Uiso  0.025330
    O1  O2-  1.0000  0.030740  0.024090  0.817430  Uiso  0.025330
    O1  O2-  1.0000  0.153690  0.120470  0.773250  Uiso  0.025330
    O1  O2-  1.0000  0.276640  0.216840  0.729060  Uiso  0.025330
    O1  O2-  1.0000  0.399590  0.313210  0.684880  Uiso  0.025330
    O1  O2-  1.0000  0.522540  0.409590  0.640690  Uiso  0.025330
    O1  O2-  1.0000  0.645490  0.505960  0.596500  Uiso  0.025330
    O1  O2-  1.0000  0.768440  0.602330  0.552320  Uiso  0.025330
    O1  O2-  1.0000  0.891390  0.698700  0.508130  Uiso  0.025330
    O1  O2-  1.0000  0.394670  0.066260  0.662780  Uiso  0.025330
    O1  O2-  1.0000  0.517620  0.162630  0.618600  Uiso  0.025330
    O1  O2-  1.0000  0.640570  0.259000  0.574410  Uiso  0.025330
    O1  O2-  1.0000  0.763520  0.355380  0.530230  Uiso  0.025330
    O1  O2-  1.0000  0.886470  0.451750  0.486040  Uiso  0.025330
    O1  O2-  1.0000  0.635650  0.012050  0.552320  Uiso  0.025330
    O1  O2-  1.0000  0.758600  0.108420  0.508130  Uiso  0.025330
    O1  O2-  1.0000  0.881550  0.204790  0.463950  Uiso  0.025330
    O1  O2-  1.0000  0.999590  0.054210  0.397670  Uiso  0.025330
    O1  O2-  1.0000  0.045490  0.764960  0.751150  Uiso  0.025330
    O1  O2-  1.0000  0.168440  0.861330  0.706970  Uiso  0.025330
    O1  O2-  1.0000  0.291390  0.957710  0.662780  Uiso  0.025330
    O1  O2-  1.0000  0.040570  0.518000  0.729060  Uiso  0.025330
    O1  O2-  1.0000  0.163520  0.614380  0.684880  Uiso  0.025330
    O1  O2-  1.0000  0.286470  0.710750  0.640690  Uiso  0.025330
    O1  O2-  1.0000  0.409420  0.807120  0.596500  Uiso  0.025330
    O1  O2-  1.0000  0.532370  0.903500  0.552320  Uiso  0.025330
    O1  O2-  1.0000  0.655320  0.999870  0.508130  Uiso  0.025330
    O1  O2-  1.0000  0.035660  0.271050  0.706970  Uiso  0.025330
    O1  O2-  1.0000  0.158610  0.367420  0.662780  Uiso  0.025330
    O1  O2-  1.0000  0.281560  0.463790  0.618600  Uiso  0.025330
    O1  O2-  1.0000  0.404510  0.560170  0.574410  Uiso  0.025330
    O1  O2-  1.0000  0.527460  0.656540  0.530230  Uiso  0.025330
    O1  O2-  1.0000  0.650410  0.752910  0.486040  Uiso  0.025330
    O1  O2-  1.0000  0.773360  0.849290  0.441860  Uiso  0.025330
    O1  O2-  1.0000  0.896310  0.945660  0.397670  Uiso  0.025330
    O1  O2-  1.0000  0.030740  0.024090  0.684880  Uiso  0.025330
    O1  O2-  1.0000  0.153690  0.120470  0.640690  Uiso  0.025330
    O1  O2-  1.0000  0.276640  0.216840  0.596500  Uiso  0.025330
    O1  O2-  1.0000  0.399590  0.313210  0.552320  Uiso  0.025330
    O1  O2-  1.0000  0.522540  0.409590  0.508130  Uiso  0.025330
    O1  O2-  1.0000  0.645490  0.505960  0.463950  Uiso  0.025330
    O1  O2-  1.0000  0.768440  0.602330  0.419760  Uiso  0.025330
    O1  O2-  1.0000  0.891390  0.698700  0.375580  Uiso  0.025330
    O1  O2-  1.0000  0.394670  0.066260  0.530230  Uiso  0.025330
    O1  O2-  1.0000  0.517620  0.162630  0.486040  Uiso  0.025330
    O1  O2-  1.0000  0.640570  0.259000  0.441860  Uiso  0.025330
    O1  O2-  1.0000  0.763520  0.355380  0.397670  Uiso  0.025330
    O1  O2-  1.0000  0.886470  0.451750  0.353480  Uiso  0.025330
    O1  O2-  1.0000  0.635650  0.012050  0.419760  Uiso  0.025330
    O1  O2-  1.0000  0.758600  0.108420  0.375580  Uiso  0.025330
    O1  O2-  1.0000  0.881550  0.204790  0.331390  Uiso  0.025330
    O1  O2-  1.0000  0.999590  0.054210  0.265110  Uiso  0.025330
    O1  O2-  1.0000  0.045490  0.764960  0.618600  Uiso  0.025330
    O1  O2-  1.0000  0.168440  0.861330  0.574410  Uiso  0.025330
    O1  O2-  1.0000  0.291390  0.957710  0.530230  Uiso  0.025330
    O1  O2-  1.0000  0.040570  0.518000  0.596500  Uiso  0.025330
    O1  O2-  1.0000  0.163520  0.614380  0.552320  Uiso  0.025330
    O1  O2-  1.0000  0.286470  0.710750  0.508130  Uiso  0.025330
    O1  O2-  1.0000  0.409420  0.807120  0.463950  Uiso  0.025330
    O1  O2-  1.0000  0.532370  0.903500  0.419760  Uiso  0.025330
    O1  O2-  1.0000  0.655320  0.999870  0.375580  Uiso  0.025330
    O1  O2-  1.0000  0.035660  0.271050  0.574410  Uiso  0.025330
    O1  O2-  1.0000  0.158610  0.367420  0.530230  Uiso  0.025330
    O1  O2-  1.0000  0.281560  0.463790  0.486040  Uiso  0.025330
    O1  O2-  1.0000  0.404510  0.560170  0.441860  Uiso  0.025330
    O1  O2-  1.0000  0.527460  0.656540  0.397670  Uiso  0.025330
    O1  O2-  1.0000  0.650410  0.752910  0.353480  Uiso  0.025330
    O1  O2-  1.0000  0.773360  0.849290  0.309300  Uiso  0.025330
    O1  O2-  1.0000  0.896310  0.945660  0.265110  Uiso  0.025330
    O1  O2-  1.0000  0.030740  0.024090  0.552320  Uiso  0.025330
    O1  O2-  1.0000  0.153690  0.120470  0.508130  Uiso  0.025330
    O1  O2-  1.0000  0.276640  0.216840  0.463950  Uiso  0.025330
    O1  O2-  1.0000  0.399590  0.313210  0.419760  Uiso  0.025330
    O1  O2-  1.0000  0.522540  0.409590  0.375580  Uiso  0.025330
    O1  O2-  1.0000  0.645490  0.505960  0.331390  Uiso  0.025330
    O1  O2-  1.0000  0.768440  0.602330  0.287210  Uiso  0.025330
    O1  O2-  1.0000  0.891390  0.698700  0.243020  Uiso  0.025330
    O1  O2-  1.0000  0.394670  0.066260  0.397670  Uiso  0.025330
    O1  O2-  1.0000  0.517620  0.162630  0.353480  Uiso  0.025330
    O1  O2-  1.0000  0.640570  0.259000  0.309300  Uiso  0.025330
    O1  O2-  1.0000  0.763520  0.355380  0.265110  Uiso  0.025330
    O1  O2-  1.0000  0.886470  0.451750  0.220930  Uiso  0.025330
    O1  O2-  1.0000  0.635650  0.012050  0.287210  Uiso  0.025330
    O1  O2-  1.0000  0.758600  0.108420  0.243020  Uiso  0.025330
    O1  O2-  1.0000  0.881550  0.204790  0.198830  Uiso  0.025330
    O1  O2-  1.0000  0.999590  0.054210  0.132560  Uiso  0.025330
    O1  O2-  1.0000  0.045490  0.764960  0.486040  Uiso  0.025330
    O1  O2-  1.0000  0.168440  0.861330  0.441860  Uiso  0.025330
    O1  O2-  1.0000  0.291390  0.957710  0.397670  Uiso  0.025330
    O1  O2-  1.0000  0.040570  0.518000  0.463950  Uiso  0.025330
    O1  O2-  1.0000  0.163520  0.614380  0.419760  Uiso  0.025330
    O1  O2-  1.0000  0.286470  0.710750  0.375580  Uiso  0.025330
    O1  O2-  1.0000  0.409420  0.807120  0.331390  Uiso  0.025330
    O1  O2-  1.0000  0.532370  0.903500  0.287210  Uiso  0.025330
    O1  O2-  1.0000  0.655320  0.999870  0.243020  Uiso  0.025330
    O1  O2-  1.0000  0.035660  0.271050  0.441860  Uiso  0.025330
    O1  O2-  1.0000  0.158610  0.367420  0.397670  Uiso  0.025330
    O1  O2-  1.0000  0.281560  0.463790  0.353480  Uiso  0.025330
    O1  O2-  1.0000  0.404510  0.560170  0.309300  Uiso  0.025330
    O1  O2-  1.0000  0.527460  0.656540  0.265110  Uiso  0.025330
    O1  O2-  1.0000  0.650410  0.752910  0.220930  Uiso  0.025330
    O1  O2-  1.0000  0.773360  0.849290  0.176740  Uiso  0.025330
    O1  O2-  1.0000  0.896310  0.945660  0.132560  Uiso  0.025330
    O1  O2-  1.0000  0.030740  0.024090  0.419760  Uiso  0.025330
    O1  O2-  1.0000  0.153690  0.120470  0.375580  Uiso  0.025330
    O1  O2-  1.0000  0.276640  0.216840  0.331390  Uiso  0.025330
    O1  O2-  1.0000  0.399590  0.313210  0.287210  Uiso  0.025330
    O1  O2-  1.0000  0.522540  0.409590  0.243020  Uiso  0.025330
    O1  O2-  1.0000  0.645490  0.505960  0.198830  Uiso  0.025330
    O1  O2-  1.0000  0.768440  0.602330  0.154650  Uiso  0.025330
    O1  O2-  1.0000  0.891390  0.698700  0.110460  Uiso  0.025330
    O1  O2-  1.0000  0.394670  0.066260  0.265110  Uiso  0.025330
    O1  O2-  1.0000  0.517620  0.162630  0.220930  Uiso  0.025330
    O1  O2-  1.0000  0.640570  0.259000  0.176740  Uiso  0.025330
    O1  O2-  1.0000  0.763520  0.355380  0.132560  Uiso  0.025330
    O1  O2-  1.0000  0.886470  0.451750  0.088370  Uiso  0.025330
    O1  O2-  1.0000  0.635650  0.012050  0.154650  Uiso  0.025330
    O1  O2-  1.0000  0.758600  0.108420  0.110460  Uiso  0.025330
    O1  O2-  1.0000  0.881550  0.204790  0.066280  Uiso  0.025330
    O1  O2-  1.0000  0.999590  0.054210  0.000000  Uiso  0.025330
    O1  O2-  1.0000  0.045490  0.764960  0.353480  Uiso  0.025330
    O1  O2-  1.0000  0.168440  0.861330  0.309300  Uiso  0.025330
    O1  O2-  1.0000  0.291390  0.957710  0.265110  Uiso  0.025330
    O1  O2-  1.0000  0.040570  0.518000  0.331390  Uiso  0.025330
    O1  O2-  1.0000  0.163520  0.614380  0.287210  Uiso  0.025330
    O1  O2-  1.0000  0.286470  0.710750  0.243020  Uiso  0.025330
    O1  O2-  1.0000  0.409420  0.807120  0.198830  Uiso  0.025330
    O1  O2-  1.0000  0.532370  0.903500  0.154650  Uiso  0.025330
    O1  O2-  1.0000  0.655320  0.999870  0.110460  Uiso  0.025330
    O1  O2-  1.0000  0.035660  0.271050  0.309300  Uiso  0.025330
    O1  O2-  1.0000  0.158610  0.367420  0.265110  Uiso  0.025330
    O1  O2-  1.0000  0.281560  0.463790  0.220930  Uiso  0.025330
    O1  O2-  1.0000  0.404510  0.560170  0.176740  Uiso  0.025330
    O1  O2-  1.0000  0.527460  0.656540  0.132560  Uiso  0.025330
    O1  O2-  1.0000  0.650410  0.752910  0.088370  Uiso  0.025330
    O1  O2-  1.0000  0.773360  0.849290  0.044190  Uiso  0.025330
    O1  O2-  1.0000  0.896310  0.945660  0.000000  Uiso  0.025330
    O1  O2-  1.0000  0.030740  0.024090  0.287210  Uiso  0.025330
    O1  O2-  1.0000  0.153690  0.120470  0.243020  Uiso  0.025330
    O1  O2-  1.0000  0.276640  0.216840  0.198830  Uiso  0.025330
    O1  O2-  1.0000  0.399590  0.313210  0.154650  Uiso  0.025330
    O1  O2-  1.0000  0.522540  0.409590  0.110460  Uiso  0.025330
    O1  O2-  1.0000  0.645490  0.505960  0.066280  Uiso  0.025330
    O1  O2-  1.0000  0.768440  0.602330  0.022090  Uiso  0.025330
    O1  O2-  1.0000  0.394670  0.066260  0.132560  Uiso  0.025330
    O1  O2-  1.0000  0.517620  0.162630  0.088370  Uiso  0.025330
    O1  O2-  1.0000  0.640570  0.259000  0.044190  Uiso  0.025330
    O1  O2-  1.0000  0.763520  0.355380  0.000000  Uiso  0.025330
    O1  O2-  1.0000  0.635650  0.012050  0.022090  Uiso  0.025330
    O1  O2-  1.0000  0.045490  0.764960  0.220930  Uiso  0.025330
    O1  O2-  1.0000  0.168440  0.861330  0.176740  Uiso  0.025330
    O1  O2-  1.0000  0.291390  0.957710  0.132560  Uiso  0.025330
    O1  O2-  1.0000  0.040570  0.518000  0.198830  Uiso  0.025330
    O1  O2-  1.0000  0.163520  0.614380  0.154650  Uiso  0.025330
    O1  O2-  1.0000  0.286470  0.710750  0.110460  Uiso  0.025330
    O1  O2-  1.0000  0.409420  0.807120  0.066280  Uiso  0.025330
    O1  O2-  1.0000  0.532370  0.903500  0.022090  Uiso  0.025330
    O1  O2-  1.0000  0.035660  0.271050  0.176740  Uiso  0.025330
    O1  O2-  1.0000  0.158610  0.367420  0.132560  Uiso  0.025330
    O1  O2-  1.0000  0.281560  0.463790  0.088370  Uiso  0.025330
    O1  O2-  1.0000  0.404510  0.560170  0.044190  Uiso  0.025330
    O1  O2-  1.0000  0.527460  0.656540  0.000000  Uiso  0.025330
    O1  O2-  1.0000  0.030740  0.024090  0.154650  Uiso  0.025330
    O1  O2-  1.0000  0.153690  0.120470  0.110460  Uiso  0.025330
    O1  O2-  1.0000  0.276640  0.216840  0.066280  Uiso  0.025330
    O1  O2-  1.0000  0.399590  0.313210  0.022090  Uiso  0.025330
    O1  O2-  1.0000  0.394670  0.066260  0.000000  Uiso  0.025330
    O1  O2-  1.0000  0.045490  0.764960  0.088370  Uiso  0.025330
    O1  O2-  1.0000  0.168440  0.861330  0.044190  Uiso  0.025330
    O1  O2-  1.0000  0.291390  0.957710  0.000000  Uiso  0.025330
    O1  O2-  1.0000  0.040570  0.518000  0.066280  Uiso  0.025330
    O1  O2-  1.0000  0.163520  0.614380  0.022090  Uiso  0.025330
    O1  O2-  1.0000  0.035660  0.271050  0.044190  Uiso  0.025330
    O1  O2-  1.0000  0.158610  0.367420  0.000000  Uiso  0.025330
    O1  O2-  1.0000  0.030740  0.024090  0.022090  Uiso  0.025330
    O1  O2-  1.0000  0.955320  0.870370  0.961040  Uiso  0.025330
    O1  O2-  1.0000  0.827460  0.527040  0.983130  Uiso  0.025330
    O1  O2-  1.0000  0.950410  0.623410  0.938940  Uiso  0.025330
    O1  O2-  1.0000  0.822540  0.280080  0.961040  Uiso  0.025330
    O1  O2-  1.0000  0.945490  0.376460  0.916850  Uiso  0.025330
    O1  O2-  1.0000  0.817620  0.033130  0.938940  Uiso  0.025330
    O1  O2-  1.0000  0.940570  0.129500  0.894760  Uiso  0.025330
    O1  O2-  1.0000  0.591390  0.828210  0.983130  Uiso  0.025330
    O1  O2-  1.0000  0.714340  0.924580  0.938940  Uiso  0.025330
    O1  O2-  1.0000  0.586470  0.581250  0.961040  Uiso  0.025330
    O1  O2-  1.0000  0.709420  0.677620  0.916850  Uiso  0.025330
    O1  O2-  1.0000  0.832370  0.774000  0.872660  Uiso  0.025330
    O1  O2-  1.0000  0.955320  0.870370  0.828480  Uiso  0.025330
    O1  O2-  1.0000  0.458600  0.237920  0.983130  Uiso  0.025330
    O1  O2-  1.0000  0.581550  0.334290  0.938940  Uiso  0.025330
    O1  O2-  1.0000  0.704510  0.430670  0.894760  Uiso  0.025330
    O1  O2-  1.0000  0.827460  0.527040  0.850570  Uiso  0.025330
    O1  O2-  1.0000  0.950410  0.623410  0.806390  Uiso  0.025330
    O1  O2-  1.0000  0.576640  0.087340  0.916850  Uiso  0.025330
    O1  O2-  1.0000  0.699590  0.183710  0.872660  Uiso  0.025330
    O1  O2-  1.0000  0.822540  0.280080  0.828480  Uiso  0.025330
    O1  O2-  1.0000  0.945490  0.376460  0.784290  Uiso  0.025330
    O1  O2-  1.0000  0.817620  0.033130  0.806390  Uiso  0.025330
    O1  O2-  1.0000  0.940570  0.129500  0.762200  Uiso  0.025330
    O1  O2-  1.0000  0.350410  0.882410  0.961040  Uiso  0.025330
    O1  O2-  1.0000  0.473360  0.978790  0.916850  Uiso  0.025330
    O1  O2-  1.0000  0.222540  0.539090  0.983130  Uiso  0.025330
    O1  O2-  1.0000  0.345490  0.635460  0.938940  Uiso  0.025330
    O1  O2-  1.0000  0.468440  0.731830  0.894760  Uiso  0.025330
    O1  O2-  1.0000  0.591390  0.828210  0.850570  Uiso  0.025330
    O1  O2-  1.0000  0.714340  0.924580  0.806390  Uiso  0.025330
    O1  O2-  1.0000  0.217620  0.292130  0.961040  Uiso  0.025330
    O1  O2-  1.0000  0.340570  0.388500  0.916850  Uiso  0.025330
    O1  O2-  1.0000  0.463520  0.484880  0.872660  Uiso  0.025330
    O1  O2-  1.0000  0.586470  0.581250  0.828480  Uiso  0.025330
    O1  O2-  1.0000  0.709420  0.677620  0.784290  Uiso  0.025330
    O1  O2-  1.0000  0.832370  0.774000  0.740110  Uiso  0.025330
    O1  O2-  1.0000  0.955320  0.870370  0.695920  Uiso  0.025330
    O1  O2-  1.0000  0.212700  0.045170  0.938940  Uiso  0.025330
    O1  O2-  1.0000  0.335650  0.141550  0.894760  Uiso  0.025330
    O1  O2-  1.0000  0.458600  0.237920  0.850570  Uiso  0.025330
    O1  O2-  1.0000  0.581550  0.334290  0.806390  Uiso  0.025330
    O1  O2-  1.0000  0.704510  0.430670  0.762200  Uiso  0.025330
    O1  O2-  1.0000  0.827460  0.527040  0.718010  Uiso  0.025330
    O1  O2-  1.0000  0.950410  0.623410  0.673830  Uiso  0.025330
    O1  O2-  1.0000  0.576640  0.087340  0.784290  Uiso  0.025330
    O1  O2-  1.0000  0.699590  0.183710  0.740110  Uiso  0.025330
    O1  O2-  1.0000  0.822540  0.280080  0.695920  Uiso  0.025330
    O1  O2-  1.0000  0.945490  0.376460  0.651740  Uiso  0.025330
    O1  O2-  1.0000  0.817620  0.033130  0.673830  Uiso  0.025330
    O1  O2-  1.0000  0.940570  0.129500  0.629640  Uiso  0.025330
    O1  O2-  1.0000  0.109430  0.936620  0.938940  Uiso  0.025330
    O1  O2-  1.0000  0.104510  0.689670  0.916850  Uiso  0.025330
    O1  O2-  1.0000  0.227460  0.786040  0.872660  Uiso  0.025330
    O1  O2-  1.0000  0.350410  0.882410  0.828480  Uiso  0.025330
    O1  O2-  1.0000  0.473360  0.978790  0.784290  Uiso  0.025330
    O1  O2-  1.0000  0.099590  0.442710  0.894760  Uiso  0.025330
    O1  O2-  1.0000  0.222540  0.539090  0.850570  Uiso  0.025330
    O1  O2-  1.0000  0.345490  0.635460  0.806390  Uiso  0.025330
    O1  O2-  1.0000  0.468440  0.731830  0.762200  Uiso  0.025330
    O1  O2-  1.0000  0.591390  0.828210  0.718010  Uiso  0.025330
    O1  O2-  1.0000  0.714340  0.924580  0.673830  Uiso  0.025330
    O1  O2-  1.0000  0.094670  0.195760  0.872660  Uiso  0.025330
    O1  O2-  1.0000  0.217620  0.292130  0.828480  Uiso  0.025330
    O1  O2-  1.0000  0.340570  0.388500  0.784290  Uiso  0.025330
    O1  O2-  1.0000  0.463520  0.484880  0.740110  Uiso  0.025330
    O1  O2-  1.0000  0.586470  0.581250  0.695920  Uiso  0.025330
    O1  O2-  1.0000  0.709420  0.677620  0.651740  Uiso  0.025330
    O1  O2-  1.0000  0.832370  0.774000  0.607550  Uiso  0.025330
    O1  O2-  1.0000  0.955320  0.870370  0.563370  Uiso  0.025330
    O1  O2-  1.0000  0.212700  0.045170  0.806390  Uiso  0.025330
    O1  O2-  1.0000  0.335650  0.141550  0.762200  Uiso  0.025330
    O1  O2-  1.0000  0.458600  0.237920  0.718010  Uiso  0.025330
    O1  O2-  1.0000  0.581550  0.334290  0.673830  Uiso  0.025330
    O1  O2-  1.0000  0.704510  0.430670  0.629640  Uiso  0.025330
    O1  O2-  1.0000  0.827460  0.527040  0.585460  Uiso  0.025330
    O1  O2-  1.0000  0.950410  0.623410  0.541270  Uiso  0.025330
    O1  O2-  1.0000  0.576640  0.087340  0.651740  Uiso  0.025330
    O1  O2-  1.0000  0.699590  0.183710  0.607550  Uiso  0.025330
    O1  O2-  1.0000  0.822540  0.280080  0.563370  Uiso  0.025330
    O1  O2-  1.0000  0.945490  0.376460  0.519180  Uiso  0.025330
    O1  O2-  1.0000  0.817620  0.033130  0.541270  Uiso  0.025330
    O1  O2-  1.0000  0.940570  0.129500  0.497090  Uiso  0.025330
    O1  O2-  1.0000  0.109430  0.936620  0.806390  Uiso  0.025330
    O1  O2-  1.0000  0.104510  0.689670  0.784290  Uiso  0.025330
    O1  O2-  1.0000  0.227460  0.786040  0.740110  Uiso  0.025330
    O1  O2-  1.0000  0.350410  0.882410  0.695920  Uiso  0.025330
    O1  O2-  1.0000  0.473360  0.978790  0.651740  Uiso  0.025330
    O1  O2-  1.0000  0.099590  0.442710  0.762200  Uiso  0.025330
    O1  O2-  1.0000  0.222540  0.539090  0.718010  Uiso  0.025330
    O1  O2-  1.0000  0.345490  0.635460  0.673830  Uiso  0.025330
    O1  O2-  1.0000  0.468440  0.731830  0.629640  Uiso  0.025330
    O1  O2-  1.0000  0.591390  0.828210  0.585460  Uiso  0.025330
    O1  O2-  1.0000  0.714340  0.924580  0.541270  Uiso  0.025330
    O1  O2-  1.0000  0.094670  0.195760  0.740110  Uiso  0.025330
    O1  O2-  1.0000  0.217620  0.292130  0.695920  Uiso  0.025330
    O1  O2-  1.0000  0.340570  0.388500  0.651740  Uiso  0.025330
    O1  O2-  1.0000  0.463520  0.484880  0.607550  Uiso  0.025330
    O1  O2-  1.0000  0.586470  0.581250  0.563370  Uiso  0.025330
    O1  O2-  1.0000  0.709420  0.677620  0.519180  Uiso  0.025330
    O1  O2-  1.0000  0.832370  0.774000  0.474990  Uiso  0.025330
    O1  O2-  1.0000  0.955320  0.870370  0.430810  Uiso  0.025330
    O1  O2-  1.0000  0.212700  0.045170  0.673830  Uiso  0.025330
    O1  O2-  1.0000  0.335650  0.141550  0.629640  Uiso  0.025330
    O1  O2-  1.0000  0.458600  0.237920  0.585460  Uiso  0.025330
    O1  O2-  1.0000  0.581550  0.334290  0.541270  Uiso  0.025330
    O1  O2-  1.0000  0.704510  0.430670  0.497090  Uiso  0.025330
    O1  O2-  1.0000  0.827460  0.527040  0.452900  Uiso  0.025330
    O1  O2-  1.0000  0.950410  0.623410  0.408720  Uiso  0.025330
    O1  O2-  1.0000  0.576640  0.087340  0.519180  Uiso  0.025330
    O1  O2-  1.0000  0.699590  0.183710  0.474990  Uiso  0.025330
    O1  O2-  1.0000  0.822540  0.280080  0.430810  Uiso  0.025330
    O1  O2-  1.0000  0.945490  0.376460  0.386620  Uiso  0.025330
    O1  O2-  1.0000  0.817620  0.033130  0.408720  Uiso  0.025330
    O1  O2-  1.0000  0.940570  0.129500  0.364530  Uiso  0.025330
    O1  O2-  1.0000  0.109430  0.936620  0.673830  Uiso  0.025330
    O1  O2-  1.0000  0.104510  0.689670  0.651740  Uiso  0.025330
    O1  O2-  1.0000  0.227460  0.786040  0.607550  Uiso  0.025330
    O1  O2-  1.0000  0.350410  0.882410  0.563370  Uiso  0.025330
    O1  O2-  1.0000  0.473360  0.978790  0.519180  Uiso  0.025330
    O1  O2-  1.0000  0.099590  0.442710  0.629640  Uiso  0.025330
    O1  O2-  1.0000  0.222540  0.539090  0.585460  Uiso  0.025330
    O1  O2-  1.0000  0.345490  0.635460  0.541270  Uiso  0.025330
    O1  O2-  1.0000  0.468440  0.731830  0.497090  Uiso  0.025330
    O1  O2-  1.0000  0.591390  0.828210  0.452900  Uiso  0.025330
    O1  O2-  1.0000  0.714340  0.924580  0.408720  Uiso  0.025330
    O1  O2-  1.0000  0.094670  0.195760  0.607550  Uiso  0.025330
    O1  O2-  1.0000  0.217620  0.292130  0.563370  Uiso  0.025330
    O1  O2-  1.0000  0.340570  0.388500  0.519180  Uiso  0.025330
    O1  O2-  1.0000  0.463520  0.484880  0.474990  Uiso  0.025330
    O1  O2-  1.0000  0.586470  0.581250  0.430810  Uiso  0.025330
    O1  O2-  1.0000  0.709420  0.677620  0.386620  Uiso  0.025330
    O1  O2-  1.0000  0.832370  0.774000  0.342440  Uiso  0.025330
    O1  O2-  1.0000  0.955320  0.870370  0.298250  Uiso  0.025330
    O1  O2-  1.0000  0.212700  0.045170  0.541270  Uiso  0.025330
    O1  O2-  1.0000  0.335650  0.141550  0.497090  Uiso  0.025330
    O1  O2-  1.0000  0.458600  0.237920  0.452900  Uiso  0.025330
    O1  O2-  1.0000  0.581550  0.334290  0.408720  Uiso  0.025330
    O1  O2-  1.0000  0.704510  0.430670  0.364530  Uiso  0.025330
    O1  O2-  1.0000  0.827460  0.527040  0.320350  Uiso  0.025330
    O1  O2-  1.0000  0.950410  0.623410  0.276160  Uiso  0.025330
    O1  O2-  1.0000  0.576640  0.087340  0.386620  Uiso  0.025330
    O1  O2-  1.0000  0.699590  0.183710  0.342440  Uiso  0.025330
    O1  O2-  1.0000  0.822540  0.280080  0.298250  Uiso  0.025330
    O1  O2-  1.0000  0.945490  0.376460  0.254070  Uiso  0.025330
    O1  O2-  1.0000  0.817620  0.033130  0.276160  Uiso  0.025330
    O1  O2-  1.0000  0.940570  0.129500  0.231970  Uiso  0.025330
    O1  O2-  1.0000  0.109430  0.936620  0.541270  Uiso  0.025330
    O1  O2-  1.0000  0.104510  0.689670  0.519180  Uiso  0.025330
    O1  O2-  1.0000  0.227460  0.786040  0.474990  Uiso  0.025330
    O1  O2-  1.0000  0.350410  0.882410  0.430810  Uiso  0.025330
    O1  O2-  1.0000  0.473360  0.978790  0.386620  Uiso  0.025330
    O1  O2-  1.0000  0.099590  0.442710  0.497090  Uiso  0.025330
    O1  O2-  1.0000  0.222540  0.539090  0.452900  Uiso  0.025330
    O1  O2-  1.0000  0.345490  0.635460  0.408720  Uiso  0.025330
    O1  O2-  1.0000  0.468440  0.731830  0.364530  Uiso  0.025330
    O1  O2-  1.0000  0.591390  0.828210  0.320350  Uiso  0.025330
    O1  O2-  1.0000  0.714340  0.924580  0.276160  Uiso  0.025330
    O1  O2-  1.0000  0.094670  0.195760  0.474990  Uiso  0.025330
    O1  O2-  1.0000  0.217620  0.292130  0.430810  Uiso  0.025330
    O1  O2-  1.0000  0.340570  0.388500  0.386620  Uiso  0.025330
    O1  O2-  1.0000  0.463520  0.484880  0.342440  Uiso  0.025330
    O1  O2-  1.0000  0.586470  0.581250  0.298250  Uiso  0.025330
    O1  O2-  1.0000  0.709420  0.677620  0.254070  Uiso  0.025330
    O1  O2-  1.0000  0.832370  0.774000  0.209880  Uiso  0.025330
    O1  O2-  1.0000  0.955320  0.870370  0.165700  Uiso  0.025330
    O1  O2-  1.0000  0.212700  0.045170  0.408720  Uiso  0.025330
    O1  O2-  1.0000  0.335650  0.141550  0.364530  Uiso  0.025330
    O1  O2-  1.0000  0.458600  0.237920  0.320350  Uiso  0.025330
    O1  O2-  1.0000  0.581550  0.334290  0.276160  Uiso  0.025330
    O1  O2-  1.0000  0.704510  0.430670  0.231970  Uiso  0.025330
    O1  O2-  1.0000  0.827460  0.527040  0.187790  Uiso  0.025330
    O1  O2-  1.0000  0.950410  0.623410  0.143600  Uiso  0.025330
    O1  O2-  1.0000  0.576640  0.087340  0.254070  Uiso  0.025330
    O1  O2-  1.0000  0.699590  0.183710  0.209880  Uiso  0.025330
    O1  O2-  1.0000  0.822540  0.280080  0.165700  Uiso  0.025330
    O1  O2-  1.0000  0.945490  0.376460  0.121510  Uiso  0.025330
    O1  O2-  1.0000  0.817620  0.033130  0.143600  Uiso  0.025330
    O1  O2-  1.0000  0.940570  0.129500  0.099420  Uiso  0.025330
    O1  O2-  1.0000  0.109430  0.936620  0.408720  Uiso  0.025330
    O1  O2-  1.0000  0.104510  0.689670  0.386620  Uiso  0.025330
    O1  O2-  1.0000  0.227460  0.786040  0.342440  Uiso  0.025330
    O1  O2-  1.0000  0.350410  0.882410  0.298250  Uiso  0.025330
    O1  O2-  1.0000  0.473360  0.978790  0.254070  Uiso  0.025330
    O1  O2-  1.0000  0.099590  0.442710  0.364530  Uiso  0.025330
    O1  O2-  1.0000  0.222540  0.539090  0.320350  Uiso  0.025330
    O1  O2-  1.0000  0.345490  0.635460  0.276160  Uiso  0.025330
    O1  O2-  1.0000  0.468440  0.731830  0.231970  Uiso  0.025330
    O1  O2-  1.0000  0.591390  0.828210  0.187790  Uiso  0.025330
    O1  O2-  1.0000  0.714340  0.924580  0.143600  Uiso  0.025330
    O1  O2-  1.0000  0.094670  0.195760  0.342440  Uiso  0.025330
    O1  O2-  1.0000  0.217620  0.292130  0.298250  Uiso  0.025330
    O1  O2-  1.0000  0.340570  0.388500  0.254070  Uiso  0.025330
    O1  O2-  1.0000  0.463520  0.484880  0.209880  Uiso  0.025330
    O1  O2-  1.0000  0.586470  0.581250  0.165700  Uiso  0.025330
    O1  O2-  1.0000  0.709420  0.677620  0.121510  Uiso  0.025330
    O1  O2-  1.0000  0.832370  0.774000  0.077320  Uiso  0.025330
    O1  O2-  1.0000  0.955320  0.870370  0.033140  Uiso  0.025330
    O1  O2-  1.0000  0.212700  0.045170  0.276160  Uiso  0.025330
    O1  O2-  1.0000  0.335650  0.141550  0.231970  Uiso  0.025330
    O1  O2-  1.0000  0.458600  0.237920  0.187790  Uiso  0.025330
    O1  O2-  1.0000  0.581550  0.334290  0.143600  Uiso  0.025330
    O1  O2-  1.0000  0.704510  0.430670  0.099420  Uiso  0.025330
    O1  O2-  1.0000  0.827460  0.527040  0.055230  Uiso  0.025330
    O1  O2-  1.0000  0.950410  0.623410  0.011050  Uiso  0.025330
    O1  O2-  1.0000  0.576640  0.087340  0.121510  Uiso  0.025330
    O1  O2-  1.0000  0.699590  0.183710  0.077320  Uiso  0.025330
    O1  O2-  1.0000  0.822540  0.280080  0.033140  Uiso  0.025330
    O1  O2-  1.0000  0.817620  0.033130  0.011050  Uiso  0.025330
    O1  O2-  1.0000  0.109430  0.936620  0.276160  Uiso  0.025330
    O1  O2-  1.0000  0.104510  0.689670  0.254070  Uiso  0.025330
    O1  O2-  1.0000  0.227460  0.786040  0.209880  Uiso  0.025330
    O1  O2-  1.0000  0.350410  0.882410  0.165700  Uiso  0.025330
    O1  O2-  1.0000  0.473360  0.978790  0.121510  Uiso  0.025330
    O1  O2-  1.0000  0.099590  0.442710  0.231970  Uiso  0.025330
    O1  O2-  1.0000  0.222540  0.539090  0.187790  Uiso  0.025330
    O1  O2-  1.0000  0.345490  0.635460  0.143600  Uiso  0.025330
    O1  O2-  1.0000  0.468440  0.731830  0.099420  Uiso  0.025330
    O1  O2-  1.0000  0.591390  0.828210  0.055230  Uiso  0.025330
    O1  O2-  1.0000  0.714340  0.924580  0.011050  Uiso  0.025330
    O1  O2-  1.0000  0.094670  0.195760  0.209880  Uiso  0.025330
    O1  O2-  1.0000  0.217620  0.292130  0.165700  Uiso  0.025330
    O1  O2-  1.0000  0.340570  0.388500  0.121510  Uiso  0.025330
    O1  O2-  1.0000  0.463520  0.484880  0.077320  Uiso  0.025330
    O1  O2-  1.0000  0.586470  0.581250  0.033140  Uiso  0.025330
    O1  O2-  1.0000  0.212700  0.045170  0.143600  Uiso  0.025330
    O1  O2-  1.0000  0.335650  0.141550  0.099420  Uiso  0.025330
    O1  O2-  1.0000  0.458600  0.237920  0.055230  Uiso  0.025330
    O1  O2-  1.0000  0.581550  0.334290  0.011050  Uiso  0.025330
    O1  O2-  1.0000  0.109430  0.936620  0.143600  Uiso  0.025330
    O1  O2-  1.0000  0.104510  0.689670  0.121510  Uiso  0.025330
    O1  O2-  1.0000  0.227460  0.786040  0.077320  Uiso  0.025330
    O1  O2-  1.0000  0.350410  0.882410  0.033140  Uiso  0.025330
    O1  O2-  1.0000  0.099590  0.442710  0.099420  Uiso  0.025330
    O1  O2-  1.0000  0.222540  0.539090  0.055230  Uiso  0.025330
    O1  O2-  1.0000  0.345490  0.635460  0.011050  Uiso  0.025330
    O1  O2-  1.0000  0.094670  0.195760  0.077320  Uiso  0.025330
    O1  O2-  1.0000  0.217620  0.292130  0.033140  Uiso  0.025330
    O1  O2-  1.0000  0.212700  0.045170  0.011050  Uiso  0.025330
    O1  O2-  1.0000  0.109430  0.936620  0.011050  Uiso  0.025330
    O1  O2-  1.0000  0.893850  0.822180  0.983130  Uiso  0.025330
    O1  O2-  1.0000  0.888930  0.575230  0.961040  Uiso  0.025330
    O1  O2-  1.0000  0.761060  0.231900  0.983130  Uiso  0.025330
    O1  O2-  1.0000  0.884010  0.328270  0.938940  Uiso  0.025330
    O1  O2-  1.0000  0.879090  0.081310  0.916850  Uiso  0.025330
    O1  O2-  1.0000  0.652870  0.876390  0.961040  Uiso  0.025330
    O1  O2-  1.0000  0.775820  0.972760  0.916850  Uiso  0.025330
    O1  O2-  1.0000  0.525000  0.533060  0.983130  Uiso  0.025330
    O1  O2-  1.0000  0.647950  0.629440  0.938940  Uiso  0.025330
    O1  O2-  1.0000  0.770900  0.725810  0.894760  Uiso  0.025330
    O1  O2-  1.0000  0.893850  0.822180  0.850570  Uiso  0.025330
    O1  O2-  1.0000  0.520080  0.286110  0.961040  Uiso  0.025330
    O1  O2-  1.0000  0.643030  0.382480  0.916850  Uiso  0.025330
    O1  O2-  1.0000  0.765980  0.478850  0.872660  Uiso  0.025330
    O1  O2-  1.0000  0.888930  0.575230  0.828480  Uiso  0.025330
    O1  O2-  1.0000  0.515160  0.039150  0.938940  Uiso  0.025330
    O1  O2-  1.0000  0.638110  0.135520  0.894760  Uiso  0.025330
    O1  O2-  1.0000  0.761060  0.231900  0.850570  Uiso  0.025330
    O1  O2-  1.0000  0.884010  0.328270  0.806390  Uiso  0.025330
    O1  O2-  1.0000  0.879090  0.081310  0.784290  Uiso  0.025330
    O1  O2-  1.0000  0.288930  0.834230  0.983130  Uiso  0.025330
    O1  O2-  1.0000  0.411880  0.930600  0.938940  Uiso  0.025330
    O1  O2-  1.0000  0.284020  0.587270  0.961040  Uiso  0.025330
    O1  O2-  1.0000  0.406970  0.683650  0.916850  Uiso  0.025330
    O1  O2-  1.0000  0.529920  0.780020  0.872660  Uiso  0.025330
    O1  O2-  1.0000  0.652870  0.876390  0.828480  Uiso  0.025330
    O1  O2-  1.0000  0.775820  0.972760  0.784290  Uiso  0.025330
    O1  O2-  1.0000  0.156150  0.243940  0.983130  Uiso  0.025330
    O1  O2-  1.0000  0.279100  0.340320  0.938940  Uiso  0.025330
    O1  O2-  1.0000  0.402050  0.436690  0.894760  Uiso  0.025330
    O1  O2-  1.0000  0.525000  0.533060  0.850570  Uiso  0.025330
    O1  O2-  1.0000  0.647950  0.629440  0.806390  Uiso  0.025330
    O1  O2-  1.0000  0.770900  0.725810  0.762200  Uiso  0.025330
    O1  O2-  1.0000  0.893850  0.822180  0.718010  Uiso  0.025330
    O1  O2-  1.0000  0.274180  0.093360  0.916850  Uiso  0.025330
    O1  O2-  1.0000  0.397130  0.189730  0.872660  Uiso  0.025330
    O1  O2-  1.0000  0.520080  0.286110  0.828480  Uiso  0.025330
    O1  O2-  1.0000  0.643030  0.382480  0.784290  Uiso  0.025330
    O1  O2-  1.0000  0.765980  0.478850  0.740110  Uiso  0.025330
    O1  O2-  1.0000  0.888930  0.575230  0.695920  Uiso  0.025330
    O1  O2-  1.0000  0.515160  0.039150  0.806390  Uiso  0.025330
    O1  O2-  1.0000  0.638110  0.135520  0.762200  Uiso  0.025330
    O1  O2-  1.0000  0.761060  0.231900  0.718010  Uiso  0.025330
    O1  O2-  1.0000  0.884010  0.328270  0.673830  Uiso  0.025330
    O1  O2-  1.0000  0.879090  0.081310  0.651740  Uiso  0.025330
    O1  O2-  1.0000  0.047950  0.888440  0.961040  Uiso  0.025330
    O1  O2-  1.0000  0.170900  0.984810  0.916850  Uiso  0.025330
    O1  O2-  1.0000  0.043030  0.641480  0.938940  Uiso  0.025330
    O1  O2-  1.0000  0.165980  0.737860  0.894760  Uiso  0.025330
    O1  O2-  1.0000  0.288930  0.834230  0.850570  Uiso  0.025330
    O1  O2-  1.0000  0.411880  0.930600  0.806390  Uiso  0.025330
    O1  O2-  1.0000  0.038110  0.394530  0.916850  Uiso  0.025330
    O1  O2-  1.0000  0.161060  0.490900  0.872660  Uiso  0.025330
    O1  O2-  1.0000  0.284020  0.587270  0.828480  Uiso  0.025330
    O1  O2-  1.0000  0.406970  0.683650  0.784290  Uiso  0.025330
    O1  O2-  1.0000  0.529920  0.780020  0.740110  Uiso  0.025330
    O1  O2-  1.0000  0.652870  0.876390  0.695920  Uiso  0.025330
    O1  O2-  1.0000  0.775820  0.972760  0.651740  Uiso  0.025330
    O1  O2-  1.0000  0.033200  0.147570  0.894760  Uiso  0.025330
    O1  O2-  1.0000  0.156150  0.243940  0.850570  Uiso  0.025330
    O1  O2-  1.0000  0.279100  0.340320  0.806390  Uiso  0.025330
    O1  O2-  1.0000  0.402050  0.436690  0.762200  Uiso  0.025330
    O1  O2-  1.0000  0.525000  0.533060  0.718010  Uiso  0.025330
    O1  O2-  1.0000  0.647950  0.629440  0.673830  Uiso  0.025330
    O1  O2-  1.0000  0.770900  0.725810  0.629640  Uiso  0.025330
    O1  O2-  1.0000  0.893850  0.822180  0.585460  Uiso  0.025330
    O1  O2-  1.0000  0.274180  0.093360  0.784290  Uiso  0.025330
    O1  O2-  1.0000  0.397130  0.189730  0.740110  Uiso  0.025330
    O1  O2-  1.0000  0.520080  0.286110  0.695920  Uiso  0.025330
    O1  O2-  1.0000  0.643030  0.382480  0.651740  Uiso  0.025330
    O1  O2-  1.0000  0.765980  0.478850  0.607550  Uiso  0.025330
    O1  O2-  1.0000  0.888930  0.575230  0.563370  Uiso  0.025330
    O1  O2-  1.0000  0.515160  0.039150  0.673830  Uiso  0.025330
    O1  O2-  1.0000  0.638110  0.135520  0.629640  Uiso  0.025330
    O1  O2-  1.0000  0.761060  0.231900  0.585460  Uiso  0.025330
    O1  O2-  1.0000  0.884010  0.328270  0.541270  Uiso  0.025330
    O1  O2-  1.0000  0.879090  0.081310  0.519180  Uiso  0.025330
    O1  O2-  1.0000  0.047950  0.888440  0.828480  Uiso  0.025330
    O1  O2-  1.0000  0.170900  0.984810  0.784290  Uiso  0.025330
    O1  O2-  1.0000  0.043030  0.641480  0.806390  Uiso  0.025330
    O1  O2-  1.0000  0.165980  0.737860  0.762200  Uiso  0.025330
    O1  O2-  1.0000  0.288930  0.834230  0.718010  Uiso  0.025330
    O1  O2-  1.0000  0.411880  0.930600  0.673830  Uiso  0.025330
    O1  O2-  1.0000  0.038110  0.394530  0.784290  Uiso  0.025330
    O1  O2-  1.0000  0.161060  0.490900  0.740110  Uiso  0.025330
    O1  O2-  1.0000  0.284020  0.587270  0.695920  Uiso  0.025330
    O1  O2-  1.0000  0.406970  0.683650  0.651740  Uiso  0.025330
    O1  O2-  1.0000  0.529920  0.780020  0.607550  Uiso  0.025330
    O1  O2-  1.0000  0.652870  0.876390  0.563370  Uiso  0.025330
    O1  O2-  1.0000  0.775820  0.972760  0.519180  Uiso  0.025330
    O1  O2-  1.0000  0.033200  0.147570  0.762200  Uiso  0.025330
    O1  O2-  1.0000  0.156150  0.243940  0.718010  Uiso  0.025330
    O1  O2-  1.0000  0.279100  0.340320  0.673830  Uiso  0.025330
    O1  O2-  1.0000  0.402050  0.436690  0.629640  Uiso  0.025330
    O1  O2-  1.0000  0.525000  0.533060  0.585460  Uiso  0.025330
    O1  O2-  1.0000  0.647950  0.629440  0.541270  Uiso  0.025330
    O1  O2-  1.0000  0.770900  0.725810  0.497090  Uiso  0.025330
    O1  O2-  1.0000  0.893850  0.822180  0.452900  Uiso  0.025330
    O1  O2-  1.0000  0.274180  0.093360  0.651740  Uiso  0.025330
    O1  O2-  1.0000  0.397130  0.189730  0.607550  Uiso  0.025330
    O1  O2-  1.0000  0.520080  0.286110  0.563370  Uiso  0.025330
    O1  O2-  1.0000  0.643030  0.382480  0.519180  Uiso  0.025330
    O1  O2-  1.0000  0.765980  0.478850  0.474990  Uiso  0.025330
    O1  O2-  1.0000  0.888930  0.575230  0.430810  Uiso  0.025330
    O1  O2-  1.0000  0.515160  0.039150  0.541270  Uiso  0.025330
    O1  O2-  1.0000  0.638110  0.135520  0.497090  Uiso  0.025330
    O1  O2-  1.0000  0.761060  0.231900  0.452900  Uiso  0.025330
    O1  O2-  1.0000  0.884010  0.328270  0.408720  Uiso  0.025330
    O1  O2-  1.0000  0.879090  0.081310  0.386620  Uiso  0.025330
    O1  O2-  1.0000  0.047950  0.888440  0.695920  Uiso  0.025330
    O1  O2-  1.0000  0.170900  0.984810  0.651740  Uiso  0.025330
    O1  O2-  1.0000  0.043030  0.641480  0.673830  Uiso  0.025330
    O1  O2-  1.0000  0.165980  0.737860  0.629640  Uiso  0.025330
    O1  O2-  1.0000  0.288930  0.834230  0.585460  Uiso  0.025330
    O1  O2-  1.0000  0.411880  0.930600  0.541270  Uiso  0.025330
    O1  O2-  1.0000  0.038110  0.394530  0.651740  Uiso  0.025330
    O1  O2-  1.0000  0.161060  0.490900  0.607550  Uiso  0.025330
    O1  O2-  1.0000  0.284020  0.587270  0.563370  Uiso  0.025330
    O1  O2-  1.0000  0.406970  0.683650  0.519180  Uiso  0.025330
    O1  O2-  1.0000  0.529920  0.780020  0.474990  Uiso  0.025330
    O1  O2-  1.0000  0.652870  0.876390  0.430810  Uiso  0.025330
    O1  O2-  1.0000  0.775820  0.972760  0.386620  Uiso  0.025330
    O1  O2-  1.0000  0.033200  0.147570  0.629640  Uiso  0.025330
    O1  O2-  1.0000  0.156150  0.243940  0.585460  Uiso  0.025330
    O1  O2-  1.0000  0.279100  0.340320  0.541270  Uiso  0.025330
    O1  O2-  1.0000  0.402050  0.436690  0.497090  Uiso  0.025330
    O1  O2-  1.0000  0.525000  0.533060  0.452900  Uiso  0.025330
    O1  O2-  1.0000  0.647950  0.629440  0.408720  Uiso  0.025330
    O1  O2-  1.0000  0.770900  0.725810  0.364530  Uiso  0.025330
    O1  O2-  1.0000  0.893850  0.822180  0.320350  Uiso  0.025330
    O1  O2-  1.0000  0.274180  0.093360  0.519180  Uiso  0.025330
    O1  O2-  1.0000  0.397130  0.189730  0.474990  Uiso  0.025330
    O1  O2-  1.0000  0.520080  0.286110  0.430810  Uiso  0.025330
    O1  O2-  1.0000  0.643030  0.382480  0.386620  Uiso  0.025330
    O1  O2-  1.0000  0.765980  0.478850  0.342440  Uiso  0.025330
    O1  O2-  1.0000  0.888930  0.575230  0.298250  Uiso  0.025330
    O1  O2-  1.0000  0.515160  0.039150  0.408720  Uiso  0.025330
    O1  O2-  1.0000  0.638110  0.135520  0.364530  Uiso  0.025330
    O1  O2-  1.0000  0.761060  0.231900  0.320350  Uiso  0.025330
    O1  O2-  1.0000  0.884010  0.328270  0.276160  Uiso  0.025330
    O1  O2-  1.0000  0.879090  0.081310  0.254070  Uiso  0.025330
    O1  O2-  1.0000  0.047950  0.888440  0.563370  Uiso  0.025330
    O1  O2-  1.0000  0.170900  0.984810  0.519180  Uiso  0.025330
    O1  O2-  1.0000  0.043030  0.641480  0.541270  Uiso  0.025330
    O1  O2-  1.0000  0.165980  0.737860  0.497090  Uiso  0.025330
    O1  O2-  1.0000  0.288930  0.834230  0.452900  Uiso  0.025330
    O1  O2-  1.0000  0.411880  0.930600  0.408720  Uiso  0.025330
    O1  O2-  1.0000  0.038110  0.394530  0.519180  Uiso  0.025330
    O1  O2-  1.0000  0.161060  0.490900  0.474990  Uiso  0.025330
    O1  O2-  1.0000  0.284020  0.587270  0.430810  Uiso  0.025330
    O1  O2-  1.0000  0.406970  0.683650  0.386620  Uiso  0.025330
    O1  O2-  1.0000  0.529920  0.780020  0.342440  Uiso  0.025330
    O1  O2-  1.0000  0.652870  0.876390  0.298250  Uiso  0.025330
    O1  O2-  1.0000  0.775820  0.972760  0.254070  Uiso  0.025330
    O1  O2-  1.0000  0.033200  0.147570  0.497090  Uiso  0.025330
    O1  O2-  1.0000  0.156150  0.243940  0.452900  Uiso  0.025330
    O1  O2-  1.0000  0.279100  0.340320  0.408720  Uiso  0.025330
    O1  O2-  1.0000  0.402050  0.436690  0.364530  Uiso  0.025330
    O1  O2-  1.0000  0.525000  0.533060  0.320350  Uiso  0.025330
    O1  O2-  1.0000  0.647950  0.629440  0.276160  Uiso  0.025330
    O1  O2-  1.0000  0.770900  0.725810  0.231970  Uiso  0.025330
    O1  O2-  1.0000  0.893850  0.822180  0.187790  Uiso  0.025330
    O1  O2-  1.0000  0.274180  0.093360  0.386620  Uiso  0.025330
    O1  O2-  1.0000  0.397130  0.189730  0.342440  Uiso  0.025330
    O1  O2-  1.0000  0.520080  0.286110  0.298250  Uiso  0.025330
    O1  O2-  1.0000  0.643030  0.382480  0.254070  Uiso  0.025330
    O1  O2-  1.0000  0.765980  0.478850  0.209880  Uiso  0.025330
    O1  O2-  1.0000  0.888930  0.575230  0.165700  Uiso  0.025330
    O1  O2-  1.0000  0.515160  0.039150  0.276160  Uiso  0.025330
    O1  O2-  1.0000  0.638110  0.135520  0.231970  Uiso  0.025330
    O1  O2-  1.0000  0.761060  0.231900  0.187790  Uiso  0.025330
    O1  O2-  1.0000  0.884010  0.328270  0.143600  Uiso  0.025330
    O1  O2-  1.0000  0.879090  0.081310  0.121510  Uiso  0.025330
    O1  O2-  1.0000  0.047950  0.888440  0.430810  Uiso  0.025330
    O1  O2-  1.0000  0.170900  0.984810  0.386620  Uiso  0.025330
    O1  O2-  1.0000  0.043030  0.641480  0.408720  Uiso  0.025330
    O1  O2-  1.0000  0.165980  0.737860  0.364530  Uiso  0.025330
    O1  O2-  1.0000  0.288930  0.834230  0.320350  Uiso  0.025330
    O1  O2-  1.0000  0.411880  0.930600  0.276160  Uiso  0.025330
    O1  O2-  1.0000  0.038110  0.394530  0.386620  Uiso  0.025330
    O1  O2-  1.0000  0.161060  0.490900  0.342440  Uiso  0.025330
    O1  O2-  1.0000  0.284020  0.587270  0.298250  Uiso  0.025330
    O1  O2-  1.0000  0.406970  0.683650  0.254070  Uiso  0.025330
    O1  O2-  1.0000  0.529920  0.780020  0.209880  Uiso  0.025330
    O1  O2-  1.0000  0.652870  0.876390  0.165700  Uiso  0.025330
    O1  O2-  1.0000  0.775820  0.972760  0.121510  Uiso  0.025330
    O1  O2-  1.0000  0.033200  0.147570  0.364530  Uiso  0.025330
    O1  O2-  1.0000  0.156150  0.243940  0.320350  Uiso  0.025330
    O1  O2-  1.0000  0.279100  0.340320  0.276160  Uiso  0.025330
    O1  O2-  1.0000  0.402050  0.436690  0.231970  Uiso  0.025330
    O1  O2-  1.0000  0.525000  0.533060  0.187790  Uiso  0.025330
    O1  O2-  1.0000  0.647950  0.629440  0.143600  Uiso  0.025330
    O1  O2-  1.0000  0.770900  0.725810  0.099420  Uiso  0.025330
    O1  O2-  1.0000  0.893850  0.822180  0.055230  Uiso  0.025330
    O1  O2-  1.0000  0.274180  0.093360  0.254070  Uiso  0.025330
    O1  O2-  1.0000  0.397130  0.189730  0.209880  Uiso  0.025330
    O1  O2-  1.0000  0.520080  0.286110  0.165700  Uiso  0.025330
    O1  O2-  1.0000  0.643030  0.382480  0.121510  Uiso  0.025330
    O1  O2-  1.0000  0.765980  0.478850  0.077320  Uiso  0.025330
    O1  O2-  1.0000  0.888930  0.575230  0.033140  Uiso  0.025330
    O1  O2-  1.0000  0.515160  0.039150  0.143600  Uiso  0.025330
    O1  O2-  1.0000  0.638110  0.135520  0.099420  Uiso  0.025330
    O1  O2-  1.0000  0.761060  0.231900  0.055230  Uiso  0.025330
    O1  O2-  1.0000  0.884010  0.328270  0.011050  Uiso  0.025330
    O1  O2-  1.0000  0.047950  0.888440  0.298250  Uiso  0.025330
    O1  O2-  1.0000  0.170900  0.984810  0.254070  Uiso  0.025330
    O1  O2-  1.0000  0.043030  0.641480  0.276160  Uiso  0.025330
    O1  O2-  1.0000  0.165980  0.737860  0.231970  Uiso  0.025330
    O1  O2-  1.0000  0.288930  0.834230  0.187790  Uiso  0.025330
    O1  O2-  1.0000  0.411880  0.930600  0.143600  Uiso  0.025330
    O1  O2-  1.0000  0.038110  0.394530  0.254070  Uiso  0.025330
    O1  O2-  1.0000  0.161060  0.490900  0.209880  Uiso  0.025330
    O1  O2-  1.0000  0.284020  0.587270  0.165700  Uiso  0.025330
    O1  O2-  1.0000  0.406970  0.683650  0.121510  Uiso  0.025330
    O1  O2-  1.0000  0.529920  0.780020  0.077320  Uiso  0.025330
    O1  O2-  1.0000  0.652870  0.876390  0.033140  Uiso  0.025330
    O1  O2-  1.0000  0.033200  0.147570  0.231970  Uiso  0.025330
    O1  O2-  1.0000  0.156150  0.243940  0.187790  Uiso  0.025330
    O1  O2-  1.0000  0.279100  0.340320  0.143600  Uiso  0.025330
    O1  O2-  1.0000  0.402050  0.436690  0.099420  Uiso  0.025330
    O1  O2-  1.0000  0.525000  0.533060  0.055230  Uiso  0.025330
    O1  O2-  1.0000  0.647950  0.629440  0.011050  Uiso  0.025330
    O1  O2-  1.0000  0.274180  0.093360  0.121510  Uiso  0.025330
    O1  O2-  1.0000  0.397130  0.189730  0.077320  Uiso  0.025330
    O1  O2-  1.0000  0.520080  0.286110  0.033140  Uiso  0.025330
    O1  O2-  1.0000  0.515160  0.039150  0.011050  Uiso  0.025330
    O1  O2-  1.0000  0.047950  0.888440  0.165700  Uiso  0.025330
    O1  O2-  1.0000  0.170900  0.984810  0.121510  Uiso  0.025330
    O1  O2-  1.0000  0.043030  0.641480  0.143600  Uiso  0.025330
    O1  O2-  1.0000  0.165980  0.737860  0.099420  Uiso  0.025330
    O1  O2-  1.0000  0.288930  0.834230  0.055230  Uiso  0.025330
    O1  O2-  1.0000  0.411880  0.930600  0.011050  Uiso  0.025330
    O1  O2-  1.0000  0.038110  0.394530  0.121510  Uiso  0.025330
    O1  O2-  1.0000  0.161060  0.490900  0.077320  Uiso  0.025330
    O1  O2-  1.0000  0.284020  0.587270  0.033140  Uiso  0.025330
    O1  O2-  1.0000  0.033200  0.147570  0.099420  Uiso  0.025330
    O1  O2-  1.0000  0.156150  0.243940  0.055230  Uiso  0.025330
    O1  O2-  1.0000  0.279100  0.340320  0.011050  Uiso  0.025330
    O1  O2-  1.0000  0.047950  0.888440  0.033140  Uiso  0.025330
    O1  O2-  1.0000  0.043030  0.641480  0.011050  Uiso  0.025330
    Ce1  Ce4+  1.0000  0.973770  0.277070  0.994170  Uiso  0.001267
    Ce1  Ce4+  1.0000  0.968850  0.030120  0.972080  Uiso  0.001267
    Ce1  Ce4+  1.0000  0.865570  0.921570  0.972080  Uiso  0.001267
    Ce1  Ce4+  1.0000  0.737700  0.578240  0.994170  Uiso  0.001267
    Ce1  Ce4+  1.0000  0.860650  0.674610  0.949990  Uiso  0.001267
    Ce1  Ce4+  1.0000  0.983600  0.770980  0.905800  Uiso  0.001267
    Ce1  Ce4+  1.0000  0.732780  0.331280  0.972080  Uiso  0.001267
    Ce1  Ce4+  1.0000  0.855730  0.427650  0.927900  Uiso  0.001267
    Ce1  Ce4+  1.0000  0.978680  0.524030  0.883710  Uiso  0.001267
    Ce1  Ce4+  1.0000  0.727870  0.084330  0.949990  Uiso  0.001267
    Ce1  Ce4+  1.0000  0.850820  0.180700  0.905800  Uiso  0.001267
    Ce1  Ce4+  1.0000  0.973770  0.277070  0.861620  Uiso  0.001267
    Ce1  Ce4+  1.0000  0.968850  0.030120  0.839530  Uiso  0.001267
    Ce1  Ce4+  1.0000  0.501640  0.879400  0.994170  Uiso  0.001267
    Ce1  Ce4+  1.0000  0.624590  0.975780  0.949990  Uiso  0.001267
    Ce1  Ce4+  1.0000  0.496720  0.632450  0.972080  Uiso  0.001267
    Ce1  Ce4+  1.0000  0.619670  0.728820  0.927900  Uiso  0.001267
    Ce1  Ce4+  1.0000  0.742620  0.825190  0.883710  Uiso  0.001267
    Ce1  Ce4+  1.0000  0.865570  0.921570  0.839530  Uiso  0.001267
    Ce1  Ce4+  1.0000  0.368850  0.289120  0.994170  Uiso  0.001267
    Ce1  Ce4+  1.0000  0.491800  0.385490  0.949990  Uiso  0.001267
    Ce1  Ce4+  1.0000  0.614750  0.481860  0.905800  Uiso  0.001267
    Ce1  Ce4+  1.0000  0.737700  0.578240  0.861620  Uiso  0.001267
    Ce1  Ce4+  1.0000  0.860650  0.674610  0.817430  Uiso  0.001267
    Ce1  Ce4+  1.0000  0.983600  0.770980  0.773250  Uiso  0.001267
    Ce1  Ce4+  1.0000  0.363930  0.042160  0.972080  Uiso  0.001267
    Ce1  Ce4+  1.0000  0.486880  0.138540  0.927900  Uiso  0.001267
    Ce1  Ce4+  1.0000  0.609830  0.234910  0.883710  Uiso  0.001267
    Ce1  Ce4+  1.0000  0.732780  0.331280  0.839530  Uiso  0.001267
    Ce1  Ce4+  1.0000  0.855730  0.427650  0.795340  Uiso  0.001267
    Ce1  Ce4+  1.0000  0.978680  0.524030  0.751150  Uiso  0.001267
    Ce1  Ce4+  1.0000  0.727870  0.084330  0.817430  Uiso  0.001267
    Ce1  Ce4+  1.0000  0.850820  0.180700  0.773250  Uiso  0.001267
    Ce1  Ce4+  1.0000  0.973770  0.277070  0.729060  Uiso  0.001267
    Ce1  Ce4+  1.0000  0.968850  0.030120  0.706970  Uiso  0.001267
    Ce1  Ce4+  1.0000  0.260650  0.933610  0.972080  Uiso  0.001267
    Ce1  Ce4+  1.0000  0.132790  0.590280  0.994170  Uiso  0.001267
    Ce1  Ce4+  1.0000  0.255740  0.686660  0.949990  Uiso  0.001267
    Ce1  Ce4+  1.0000  0.378690  0.783030  0.905800  Uiso  0.001267
    Ce1  Ce4+  1.0000  0.501640  0.879400  0.861620  Uiso  0.001267
    Ce1  Ce4+  1.0000  0.624590  0.975780  0.817430  Uiso  0.001267
    Ce1  Ce4+  1.0000  0.127870  0.343330  0.972080  Uiso  0.001267
    Ce1  Ce4+  1.0000  0.250820  0.439700  0.927900  Uiso  0.001267
    Ce1  Ce4+  1.0000  0.373770  0.536070  0.883710  Uiso  0.001267
    Ce1  Ce4+  1.0000  0.496720  0.632450  0.839530  Uiso  0.001267
    Ce1  Ce4+  1.0000  0.619670  0.728820  0.795340  Uiso  0.001267
    Ce1  Ce4+  1.0000  0.742620  0.825190  0.751150  Uiso  0.001267
    Ce1  Ce4+  1.0000  0.865570  0.921570  0.706970  Uiso  0.001267
    Ce1  Ce4+  1.0000  0.000000  0.000000  0.994170  Uiso  0.001267
    Ce1  Ce4+  1.0000  0.122950  0.096370  0.949990  Uiso  0.001267
    Ce1  Ce4+  1.0000  0.245900  0.192750  0.905800  Uiso  0.001267
    Ce1  Ce4+  1.0000  0.368850  0.289120  0.861620  Uiso  0.001267
    Ce1  Ce4+  1.0000  0.491800  0.385490  0.817430  Uiso  0.001267
    Ce1  Ce4+  1.0000  0.614750  0.481860  0.773250  Uiso  0.001267
    Ce1  Ce4+  1.0000  0.737700  0.578240  0.729060  Uiso  0.001267
    Ce1  Ce4+  1.0000  0.860650  0.674610  0.684880  Uiso  0.001267
    Ce1  Ce4+  1.0000  0.983600  0.770980  0.640690  Uiso  0.001267
    Ce1  Ce4+  1.0000  0.363930  0.042160  0.839530  Uiso  0.001267
    Ce1  Ce4+  1.0000  0.486880  0.138540  0.795340  Uiso  0.001267
    Ce1  Ce4+  1.0000  0.609830  0.234910  0.751150  Uiso  0.001267
    Ce1  Ce4+  1.0000  0.732780  0.331280  0.706970  Uiso  0.001267
    Ce1  Ce4+  1.0000  0.855730  0.427650  0.662780  Uiso  0.001267
    Ce1  Ce4+  1.0000  0.978680  0.524030  0.618600  Uiso  0.001267
    Ce1  Ce4+  1.0000  0.727870  0.084330  0.684880  Uiso  0.001267
    Ce1  Ce4+  1.0000  0.850820  0.180700  0.640690  Uiso  0.001267
    Ce1  Ce4+  1.0000  0.973770  0.277070  0.596500  Uiso  0.001267
    Ce1  Ce4+  1.0000  0.968850  0.030120  0.574410  Uiso  0.001267
    Ce1  Ce4+  1.0000  0.019670  0.987820  0.949990  Uiso  0.001267
    Ce1  Ce4+  1.0000  0.014750  0.740870  0.927900  Uiso  0.001267
    Ce1  Ce4+  1.0000  0.137700  0.837240  0.883710  Uiso  0.001267
    Ce1  Ce4+  1.0000  0.260650  0.933610  0.839530  Uiso  0.001267
    Ce1  Ce4+  1.0000  0.009840  0.493910  0.905800  Uiso  0.001267
    Ce1  Ce4+  1.0000  0.132790  0.590280  0.861620  Uiso  0.001267
    Ce1  Ce4+  1.0000  0.255740  0.686660  0.817430  Uiso  0.001267
    Ce1  Ce4+  1.0000  0.378690  0.783030  0.773250  Uiso  0.001267
    Ce1  Ce4+  1.0000  0.501640  0.879400  0.729060  Uiso  0.001267
    Ce1  Ce4+  1.0000  0.624590  0.975780  0.684880  Uiso  0.001267
    Ce1  Ce4+  1.0000  0.004920  0.246960  0.883710  Uiso  0.001267
    Ce1  Ce4+  1.0000  0.127870  0.343330  0.839530  Uiso  0.001267
    Ce1  Ce4+  1.0000  0.250820  0.439700  0.795340  Uiso  0.001267
    Ce1  Ce4+  1.0000  0.373770  0.536070  0.751150  Uiso  0.001267
    Ce1  Ce4+  1.0000  0.496720  0.632450  0.706970  Uiso  0.001267
    Ce1  Ce4+  1.0000  0.619670  0.728820  0.662780  Uiso  0.001267
    Ce1  Ce4+  1.0000  0.742620  0.825190  0.618600  Uiso  0.001267
    Ce1  Ce4+  1.0000  0.865570  0.921570  0.574410  Uiso  0.001267
    Ce1  Ce4+  1.0000  0.000000  0.000000  0.861620  Uiso  0.001267
    Ce1  Ce4+  1.0000  0.122950  0.096370  0.817430  Uiso  0.001267
    Ce1  Ce4+  1.0000  0.245900  0.192750  0.773250  Uiso  0.001267
    Ce1  Ce4+  1.0000  0.368850  0.289120  0.729060  Uiso  0.001267
    Ce1  Ce4+  1.0000  0.491800  0.385490  0.684880  Uiso  0.001267
    Ce1  Ce4+  1.0000  0.614750  0.481860  0.640690  Uiso  0.001267
    Ce1  Ce4+  1.0000  0.737700  0.578240  0.596500  Uiso  0.001267
    Ce1  Ce4+  1.0000  0.860650  0.674610  0.552320  Uiso  0.001267
    Ce1  Ce4+  1.0000  0.983600  0.770980  0.508130  Uiso  0.001267
    Ce1  Ce4+  1.0000  0.363930  0.042160  0.706970  Uiso  0.001267
    Ce1  Ce4+  1.0000  0.486880  0.138540  0.662780  Uiso  0.001267
    Ce1  Ce4+  1.0000  0.609830  0.234910  0.618600  Uiso  0.001267
    Ce1  Ce4+  1.0000  0.732780  0.331280  0.574410  Uiso  0.001267
    Ce1  Ce4+  1.0000  0.855730  0.427650  0.530230  Uiso  0.001267
    Ce1  Ce4+  1.0000  0.978680  0.524030  0.486040  Uiso  0.001267
    Ce1  Ce4+  1.0000  0.727870  0.084330  0.552320  Uiso  0.001267
    Ce1  Ce4+  1.0000  0.850820  0.180700  0.508130  Uiso  0.001267
    Ce1  Ce4+  1.0000  0.973770  0.277070  0.463950  Uiso  0.001267
    Ce1  Ce4+  1.0000  0.968850  0.030120  0.441860  Uiso  0.001267
    Ce1  Ce4+  1.0000  0.019670  0.987820  0.817430  Uiso  0.001267
    Ce1  Ce4+  1.0000  0.014750  0.740870  0.795340  Uiso  0.001267
    Ce1  Ce4+  1.0000  0.137700  0.837240  0.751150  Uiso  0.001267
    Ce1  Ce4+  1.0000  0.260650  0.933610  0.706970  Uiso  0.001267
    Ce1  Ce4+  1.0000  0.009840  0.493910  0.773250  Uiso  0.001267
    Ce1  Ce4+  1.0000  0.132790  0.590280  0.729060  Uiso  0.001267
    Ce1  Ce4+  1.0000  0.255740  0.686660  0.684880  Uiso  0.001267
    Ce1  Ce4+  1.0000  0.378690  0.783030  0.640690  Uiso  0.001267
    Ce1  Ce4+  1.0000  0.501640  0.879400  0.596500  Uiso  0.001267
    Ce1  Ce4+  1.0000  0.624590  0.975780  0.552320  Uiso  0.001267
    Ce1  Ce4+  1.0000  0.004920  0.246960  0.751150  Uiso  0.001267
    Ce1  Ce4+  1.0000  0.127870  0.343330  0.706970  Uiso  0.001267
    Ce1  Ce4+  1.0000  0.250820  0.439700  0.662780  Uiso  0.001267
    Ce1  Ce4+  1.0000  0.373770  0.536070  0.618600  Uiso  0.001267
    Ce1  Ce4+  1.0000  0.496720  0.632450  0.574410  Uiso  0.001267
    Ce1  Ce4+  1.0000  0.619670  0.728820  0.530230  Uiso  0.001267
    Ce1  Ce4+  1.0000  0.742620  0.825190  0.486040  Uiso  0.001267
    Ce1  Ce4+  1.0000  0.865570  0.921570  0.441860  Uiso  0.001267
    Ce1  Ce4+  1.0000  0.000000  0.000000  0.729060  Uiso  0.001267
    Ce1  Ce4+  1.0000  0.122950  0.096370  0.684880  Uiso  0.001267
    Ce1  Ce4+  1.0000  0.245900  0.192750  0.640690  Uiso  0.001267
    Ce1  Ce4+  1.0000  0.368850  0.289120  0.596500  Uiso  0.001267
    Ce1  Ce4+  1.0000  0.491800  0.385490  0.552320  Uiso  0.001267
    Ce1  Ce4+  1.0000  0.614750  0.481860  0.508130  Uiso  0.001267
    Ce1  Ce4+  1.0000  0.737700  0.578240  0.463950  Uiso  0.001267
    Ce1  Ce4+  1.0000  0.860650  0.674610  0.419760  Uiso  0.001267
    Ce1  Ce4+  1.0000  0.983600  0.770980  0.375580  Uiso  0.001267
    Ce1  Ce4+  1.0000  0.363930  0.042160  0.574410  Uiso  0.001267
    Ce1  Ce4+  1.0000  0.486880  0.138540  0.530230  Uiso  0.001267
    Ce1  Ce4+  1.0000  0.609830  0.234910  0.486040  Uiso  0.001267
    Ce1  Ce4+  1.0000  0.732780  0.331280  0.441860  Uiso  0.001267
    Ce1  Ce4+  1.0000  0.855730  0.427650  0.397670  Uiso  0.001267
    Ce1  Ce4+  1.0000  0.978680  0.524030  0.353480  Uiso  0.001267
    Ce1  Ce4+  1.0000  0.727870  0.084330  0.419760  Uiso  0.001267
    Ce1  Ce4+  1.0000  0.850820  0.180700  0.375580  Uiso  0.001267
    Ce1  Ce4+  1.0000  0.973770  0.277070  0.331390  Uiso  0.001267
    Ce1  Ce4+  1.0000  0.968850  0.030120  0.309300  Uiso  0.001267
    Ce1  Ce4+  1.0000  0.019670  0.987820  0.684880  Uiso  0.001267
    Ce1  Ce4+  1.0000  0.014750  0.740870  0.662780  Uiso  0.001267
    Ce1  Ce4+  1.0000  0.137700  0.837240  0.618600  Uiso  0.001267
    Ce1  Ce4+  1.0000  0.260650  0.933610  0.574410  Uiso  0.001267
    Ce1  Ce4+  1.0000  0.009840  0.493910  0.640690  Uiso  0.001267
    Ce1  Ce4+  1.0000  0.132790  0.590280  0.596500  Uiso  0.001267
    Ce1  Ce4+  1.0000  0.255740  0.686660  0.552320  Uiso  0.001267
    Ce1  Ce4+  1.0000  0.378690  0.783030  0.508130  Uiso  0.001267
    Ce1  Ce4+  1.0000  0.501640  0.879400  0.463950  Uiso  0.001267
    Ce1  Ce4+  1.0000  0.624590  0.975780  0.419760  Uiso  0.001267
    Ce1  Ce4+  1.0000  0.004920  0.246960  0.618600  Uiso  0.001267
    Ce1  Ce4+  1.0000  0.127870  0.343330  0.574410  Uiso  0.001267
    Ce1  Ce4+  1.0000  0.250820  0.439700  0.530230  Uiso  0.001267
    Ce1  Ce4+  1.0000  0.373770  0.536070  0.486040  Uiso  0.001267
    Ce1  Ce4+  1.0000  0.496720  0.632450  0.441860  Uiso  0.001267
    Ce1  Ce4+  1.0000  0.619670  0.728820  0.397670  Uiso  0.001267
    Ce1  Ce4+  1.0000  0.742620  0.825190  0.353480  Uiso  0.001267
    Ce1  Ce4+  1.0000  0.865570  0.921570  0.309300  Uiso  0.001267
    Ce1  Ce4+  1.0000  0.000000  0.000000  0.596500  Uiso  0.001267
    Ce1  Ce4+  1.0000  0.122950  0.096370  0.552320  Uiso  0.001267
    Ce1  Ce4+  1.0000  0.245900  0.192750  0.508130  Uiso  0.001267
    Ce1  Ce4+  1.0000  0.368850  0.289120  0.463950  Uiso  0.001267
    Ce1  Ce4+  1.0000  0.491800  0.385490  0.419760  Uiso  0.001267
    Ce1  Ce4+  1.0000  0.614750  0.481860  0.375580  Uiso  0.001267
    Ce1  Ce4+  1.0000  0.737700  0.578240  0.331390  Uiso  0.001267
    Ce1  Ce4+  1.0000  0.860650  0.674610  0.287210  Uiso  0.001267
    Ce1  Ce4+  1.0000  0.983600  0.770980  0.243020  Uiso  0.001267
    Ce1  Ce4+  1.0000  0.363930  0.042160  0.441860  Uiso  0.001267
    Ce1  Ce4+  1.0000  0.486880  0.138540  0.397670  Uiso  0.001267
    Ce1  Ce4+  1.0000  0.609830  0.234910  0.353480  Uiso  0.001267
    Ce1  Ce4+  1.0000  0.732780  0.331280  0.309300  Uiso  0.001267
    Ce1  Ce4+  1.0000  0.855730  0.427650  0.265110  Uiso  0.001267
    Ce1  Ce4+  1.0000  0.978680  0.524030  0.220930  Uiso  0.001267
    Ce1  Ce4+  1.0000  0.727870  0.084330  0.287210  Uiso  0.001267
    Ce1  Ce4+  1.0000  0.850820  0.180700  0.243020  Uiso  0.001267
    Ce1  Ce4+  1.0000  0.973770  0.277070  0.198830  Uiso  0.001267
    Ce1  Ce4+  1.0000  0.968850  0.030120  0.176740  Uiso  0.001267
    Ce1  Ce4+  1.0000  0.019670  0.987820  0.552320  Uiso  0.001267
    Ce1  Ce4+  1.0000  0.014750  0.740870  0.530230  Uiso  0.001267
    Ce1  Ce4+  1.0000  0.137700  0.837240  0.486040  Uiso  0.001267
    Ce1  Ce4+  1.0000  0.260650  0.933610  0.441860  Uiso  0.001267
    Ce1  Ce4+  1.0000  0.009840  0.493910  0.508130  Uiso  0.001267
    Ce1  Ce4+  1.0000  0.132790  0.590280  0.463950  Uiso  0.001267
    Ce1  Ce4+  1.0000  0.255740  0.686660  0.419760  Uiso  0.001267
    Ce1  Ce4+  1.0000  0.378690  0.783030  0.375580  Uiso  0.001267
    Ce1  Ce4+  1.0000  0.501640  0.879400  0.331390  Uiso  0.001267
    Ce1  Ce4+  1.0000  0.624590  0.975780  0.287210  Uiso  0.001267
    Ce1  Ce4+  1.0000  0.004920  0.246960  0.486040  Uiso  0.001267
    Ce1  Ce4+  1.0000  0.127870  0.343330  0.441860  Uiso  0.001267
    Ce1  Ce4+  1.0000  0.250820  0.439700  0.397670  Uiso  0.001267
    Ce1  Ce4+  1.0000  0.373770  0.536070  0.353480  Uiso  0.001267
    Ce1  Ce4+  1.0000  0.496720  0.632450  0.309300  Uiso  0.001267
    Ce1  Ce4+  1.0000  0.619670  0.728820  0.265110  Uiso  0.001267
    Ce1  Ce4+  1.0000  0.742620  0.825190  0.220930  Uiso  0.001267
    Ce1  Ce4+  1.0000  0.865570  0.921570  0.176740  Uiso  0.001267
    Ce1  Ce4+  1.0000  0.000000  0.000000  0.463950  Uiso  0.001267
    Ce1  Ce4+  1.0000  0.122950  0.096370  0.419760  Uiso  0.001267
    Ce1  Ce4+  1.0000  0.245900  0.192750  0.375580  Uiso  0.001267
    Ce1  Ce4+  1.0000  0.368850  0.289120  0.331390  Uiso  0.001267
    Ce1  Ce4+  1.0000  0.491800  0.385490  0.287210  Uiso  0.001267
    Ce1  Ce4+  1.0000  0.614750  0.481860  0.243020  Uiso  0.001267
    Ce1  Ce4+  1.0000  0.737700  0.578240  0.198830  Uiso  0.001267
    Ce1  Ce4+  1.0000  0.860650  0.674610  0.154650  Uiso  0.001267
    Ce1  Ce4+  1.0000  0.983600  0.770980  0.110460  Uiso  0.001267
    Ce1  Ce4+  1.0000  0.363930  0.042160  0.309300  Uiso  0.001267
    Ce1  Ce4+  1.0000  0.486880  0.138540  0.265110  Uiso  0.001267
    Ce1  Ce4+  1.0000  0.609830  0.234910  0.220930  Uiso  0.001267
    Ce1  Ce4+  1.0000  0.732780  0.331280  0.176740  Uiso  0.001267
    Ce1  Ce4+  1.0000  0.855730  0.427650  0.132560  Uiso  0.001267
    Ce1  Ce4+  1.0000  0.978680  0.524030  0.088370  Uiso  0.001267
    Ce1  Ce4+  1.0000  0.727870  0.084330  0.154650  Uiso  0.001267
    Ce1  Ce4+  1.0000  0.850820  0.180700  0.110460  Uiso  0.001267
    Ce1  Ce4+  1.0000  0.973770  0.277070  0.066280  Uiso  0.001267
    Ce1  Ce4+  1.0000  0.968850  0.030120  0.044190  Uiso  0.001267
    Ce1  Ce4+  1.0000  0.019670  0.987820  0.419760  Uiso  0.001267
    Ce1  Ce4+  1.0000  0.014750  0.740870  0.397670  Uiso  0.001267
    Ce1  Ce4+  1.0000  0.137700  0.837240  0.353480  Uiso  0.001267
    Ce1  Ce4+  1.0000  0.260650  0.933610  0.309300  Uiso  0.001267
    Ce1  Ce4+  1.0000  0.009840  0.493910  0.375580  Uiso  0.001267
    Ce1  Ce4+  1.0000  0.132790  0.590280  0.331390  Uiso  0.001267
    Ce1  Ce4+  1.0000  0.255740  0.686660  0.287210  Uiso  0.001267
    Ce1  Ce4+  1.0000  0.378690  0.783030  0.243020  Uiso  0.001267
    Ce1  Ce4+  1.0000  0.501640  0.879400  0.198830  Uiso  0.001267
    Ce1  Ce4+  1.0000  0.624590  0.975780  0.154650  Uiso  0.001267
    Ce1  Ce4+  1.0000  0.004920  0.246960  0.353480  Uiso  0.001267
    Ce1  Ce4+  1.0000  0.127870  0.343330  0.309300  Uiso  0.001267
    Ce1  Ce4+  1.0000  0.250820  0.439700  0.265110  Uiso  0.001267
    Ce1  Ce4+  1.0000  0.373770  0.536070  0.220930  Uiso  0.001267
    Ce1  Ce4+  1.0000  0.496720  0.632450  0.176740  Uiso  0.001267
    Ce1  Ce4+  1.0000  0.619670  0.728820  0.132560  Uiso  0.001267
    Ce1  Ce4+  1.0000  0.742620  0.825190  0.088370  Uiso  0.001267
    Ce1  Ce4+  1.0000  0.865570  0.921570  0.044190  Uiso  0.001267
    Ce1  Ce4+  1.0000  0.000000  0.000000  0.331390  Uiso  0.001267
    Ce1  Ce4+  1.0000  0.122950  0.096370  0.287210  Uiso  0.001267
    Ce1  Ce4+  1.0000  0.245900  0.192750  0.243020  Uiso  0.001267
    Ce1  Ce4+  1.0000  0.368850  0.289120  0.198830  Uiso  0.001267
    Ce1  Ce4+  1.0000  0.491800  0.385490  0.154650  Uiso  0.001267
    Ce1  Ce4+  1.0000  0.614750  0.481860  0.110460  Uiso  0.001267
    Ce1  Ce4+  1.0000  0.737700  0.578240  0.066280  Uiso  0.001267
    Ce1  Ce4+  1.0000  0.860650  0.674610  0.022090  Uiso  0.001267
    Ce1  Ce4+  1.0000  0.363930  0.042160  0.176740  Uiso  0.001267
    Ce1  Ce4+  1.0000  0.486880  0.138540  0.132560  Uiso  0.001267
    Ce1  Ce4+  1.0000  0.609830  0.234910  0.088370  Uiso  0.001267
    Ce1  Ce4+  1.0000  0.732780  0.331280  0.044190  Uiso  0.001267
    Ce1  Ce4+  1.0000  0.855730  0.427650  0.000000  Uiso  0.001267
    Ce1  Ce4+  1.0000  0.727870  0.084330  0.022090  Uiso  0.001267
    Ce1  Ce4+  1.0000  0.019670  0.987820  0.287210  Uiso  0.001267
    Ce1  Ce4+  1.0000  0.014750  0.740870  0.265110  Uiso  0.001267
    Ce1  Ce4+  1.0000  0.137700  0.837240  0.220930  Uiso  0.001267
    Ce1  Ce4+  1.0000  0.260650  0.933610  0.176740  Uiso  0.001267
    Ce1  Ce4+  1.0000  0.009840  0.493910  0.243020  Uiso  0.001267
    Ce1  Ce4+  1.0000  0.132790  0.590280  0.198830  Uiso  0.001267
    Ce1  Ce4+  1.0000  0.255740  0.686660  0.154650  Uiso  0.001267
    Ce1  Ce4+  1.0000  0.378690  0.783030  0.110460  Uiso  0.001267
    Ce1  Ce4+  1.0000  0.501640  0.879400  0.066280  Uiso  0.001267
    Ce1  Ce4+  1.0000  0.624590  0.975780  0.022090  Uiso  0.001267
    Ce1  Ce4+  1.0000  0.004920  0.246960  0.220930  Uiso  0.001267
    Ce1  Ce4+  1.0000  0.127870  0.343330  0.176740  Uiso  0.001267
    Ce1  Ce4+  1.0000  0.250820  0.439700  0.132560  Uiso  0.001267
    Ce1  Ce4+  1.0000  0.373770  0.536070  0.088370  Uiso  0.001267
    Ce1  Ce4+  1.0000  0.496720  0.632450  0.044190  Uiso  0.001267
    Ce1  Ce4+  1.0000  0.619670  0.728820  0.000000  Uiso  0.001267
    Ce1  Ce4+  1.0000  0.000000  0.000000  0.198830  Uiso  0.001267
    Ce1  Ce4+  1.0000  0.122950  0.096370  0.154650  Uiso  0.001267
    Ce1  Ce4+  1.0000  0.245900  0.192750  0.110460  Uiso  0.001267
    Ce1  Ce4+  1.0000  0.368850  0.289120  0.066280  Uiso  0.001267
    Ce1  Ce4+  1.0000  0.491800  0.385490  0.022090  Uiso  0.001267
    Ce1  Ce4+  1.0000  0.363930  0.042160  0.044190  Uiso  0.001267
    Ce1  Ce4+  1.0000  0.486880  0.138540  0.000000  Uiso  0.001267
    Ce1  Ce4+  1.0000  0.019670  0.987820  0.154650  Uiso  0.001267
    Ce1  Ce4+  1.0000  0.014750  0.740870  0.132560  Uiso  0.001267
    Ce1  Ce4+  1.0000  0.137700  0.837240  0.088370  Uiso  0.001267
    Ce1  Ce4+  1.0000  0.260650  0.933610  0.044190  Uiso  0.001267
    Ce1  Ce4+  1.0000  0.009840  0.493910  0.110460  Uiso  0.001267
    Ce1  Ce4+  1.0000  0.132790  0.590280  0.066280  Uiso  0.001267
    Ce1  Ce4+  1.0000  0.255740  0.686660  0.022090  Uiso  0.001267
    Ce1  Ce4+  1.0000  0.004920  0.246960  0.088370  Uiso  0.001267
    Ce1  Ce4+  1.0000  0.127870  0.343330  0.044190  Uiso  0.001267
    Ce1  Ce4+  1.0000  0.250820  0.439700  0.000000  Uiso  0.001267
    Ce1  Ce4+  1.0000  0.000000  0.000000  0.066280  Uiso  0.001267
    Ce1  Ce4+  1.0000  0.122950  0.096370  0.022090  Uiso  0.001267
    Ce1  Ce4+  1.0000  0.019670  0.987820  0.022090  Uiso  0.001267
    Ce1  Ce4+  1.0000  0.014750  0.740870  0.000000  Uiso  0.001267
    Ce1  Ce4+  1.0000  0.919670  0.599320  0.983130  Uiso  0.001267
    Ce1  Ce4+  1.0000  0.914750  0.352360  0.961040  Uiso  0.001267
    Ce1  Ce4+  1.0000  0.786880  0.009030  0.983130  Uiso  0.001267
    Ce1  Ce4+  1.0000  0.909830  0.105410  0.938940  Uiso  0.001267
    Ce1  Ce4+  1.0000  0.683600  0.900480  0.983130  Uiso  0.001267
    Ce1  Ce4+  1.0000  0.806550  0.996860  0.938940  Uiso  0.001267
    Ce1  Ce4+  1.0000  0.678690  0.653530  0.961040  Uiso  0.001267
    Ce1  Ce4+  1.0000  0.801640  0.749900  0.916850  Uiso  0.001267
    Ce1  Ce4+  1.0000  0.924590  0.846270  0.872660  Uiso  0.001267
    Ce1  Ce4+  1.0000  0.550820  0.310200  0.983130  Uiso  0.001267
    Ce1  Ce4+  1.0000  0.673770  0.406570  0.938940  Uiso  0.001267
    Ce1  Ce4+  1.0000  0.796720  0.502950  0.894760  Uiso  0.001267
    Ce1  Ce4+  1.0000  0.919670  0.599320  0.850570  Uiso  0.001267
    Ce1  Ce4+  1.0000  0.545900  0.063240  0.961040  Uiso  0.001267
    Ce1  Ce4+  1.0000  0.668850  0.159620  0.916850  Uiso  0.001267
    Ce1  Ce4+  1.0000  0.791800  0.255990  0.872660  Uiso  0.001267
    Ce1  Ce4+  1.0000  0.914750  0.352360  0.828480  Uiso  0.001267
    Ce1  Ce4+  1.0000  0.786880  0.009030  0.850570  Uiso  0.001267
    Ce1  Ce4+  1.0000  0.909830  0.105410  0.806390  Uiso  0.001267
    Ce1  Ce4+  1.0000  0.442620  0.954690  0.961040  Uiso  0.001267
    Ce1  Ce4+  1.0000  0.314750  0.611370  0.983130  Uiso  0.001267
    Ce1  Ce4+  1.0000  0.437700  0.707740  0.938940  Uiso  0.001267
    Ce1  Ce4+  1.0000  0.560650  0.804110  0.894760  Uiso  0.001267
    Ce1  Ce4+  1.0000  0.683600  0.900480  0.850570  Uiso  0.001267
    Ce1  Ce4+  1.0000  0.806550  0.996860  0.806390  Uiso  0.001267
    Ce1  Ce4+  1.0000  0.309830  0.364410  0.961040  Uiso  0.001267
    Ce1  Ce4+  1.0000  0.432780  0.460780  0.916850  Uiso  0.001267
    Ce1  Ce4+  1.0000  0.555740  0.557160  0.872660  Uiso  0.001267
    Ce1  Ce4+  1.0000  0.678690  0.653530  0.828480  Uiso  0.001267
    Ce1  Ce4+  1.0000  0.801640  0.749900  0.784290  Uiso  0.001267
    Ce1  Ce4+  1.0000  0.924590  0.846270  0.740110  Uiso  0.001267
    Ce1  Ce4+  1.0000  0.181970  0.021080  0.983130  Uiso  0.001267
    Ce1  Ce4+  1.0000  0.304920  0.117450  0.938940  Uiso  0.001267
    Ce1  Ce4+  1.0000  0.427870  0.213830  0.894760  Uiso  0.001267
    Ce1  Ce4+  1.0000  0.550820  0.310200  0.850570  Uiso  0.001267
    Ce1  Ce4+  1.0000  0.673770  0.406570  0.806390  Uiso  0.001267
    Ce1  Ce4+  1.0000  0.796720  0.502950  0.762200  Uiso  0.001267
    Ce1  Ce4+  1.0000  0.919670  0.599320  0.718010  Uiso  0.001267
    Ce1  Ce4+  1.0000  0.545900  0.063240  0.828480  Uiso  0.001267
    Ce1  Ce4+  1.0000  0.668850  0.159620  0.784290  Uiso  0.001267
    Ce1  Ce4+  1.0000  0.791800  0.255990  0.740110  Uiso  0.001267
    Ce1  Ce4+  1.0000  0.914750  0.352360  0.695920  Uiso  0.001267
    Ce1  Ce4+  1.0000  0.786880  0.009030  0.718010  Uiso  0.001267
    Ce1  Ce4+  1.0000  0.909830  0.105410  0.673830  Uiso  0.001267
    Ce1  Ce4+  1.0000  0.078690  0.912530  0.983130  Uiso  0.001267
    Ce1  Ce4+  1.0000  0.073770  0.665580  0.961040  Uiso  0.001267
    Ce1  Ce4+  1.0000  0.196720  0.761950  0.916850  Uiso  0.001267
    Ce1  Ce4+  1.0000  0.319670  0.858320  0.872660  Uiso  0.001267
    Ce1  Ce4+  1.0000  0.442620  0.954690  0.828480  Uiso  0.001267
    Ce1  Ce4+  1.0000  0.068850  0.418620  0.938940  Uiso  0.001267
    Ce1  Ce4+  1.0000  0.191800  0.514990  0.894760  Uiso  0.001267
    Ce1  Ce4+  1.0000  0.314750  0.611370  0.850570  Uiso  0.001267
    Ce1  Ce4+  1.0000  0.437700  0.707740  0.806390  Uiso  0.001267
    Ce1  Ce4+  1.0000  0.560650  0.804110  0.762200  Uiso  0.001267
    Ce1  Ce4+  1.0000  0.683600  0.900480  0.718010  Uiso  0.001267
    Ce1  Ce4+  1.0000  0.806550  0.996860  0.673830  Uiso  0.001267
    Ce1  Ce4+  1.0000  0.063930  0.171660  0.916850  Uiso  0.001267
    Ce1  Ce4+  1.0000  0.186880  0.268040  0.872660  Uiso  0.001267
    Ce1  Ce4+  1.0000  0.309830  0.364410  0.828480  Uiso  0.001267
    Ce1  Ce4+  1.0000  0.432780  0.460780  0.784290  Uiso  0.001267
    Ce1  Ce4+  1.0000  0.555740  0.557160  0.740110  Uiso  0.001267
    Ce1  Ce4+  1.0000  0.678690  0.653530  0.695920  Uiso  0.001267
    Ce1  Ce4+  1.0000  0.801640  0.749900  0.651740  Uiso  0.001267
    Ce1  Ce4+  1.0000  0.924590  0.846270  0.607550  Uiso  0.001267
    Ce1  Ce4+  1.0000  0.181970  0.021080  0.850570  Uiso  0.001267
    Ce1  Ce4+  1.0000  0.304920  0.117450  0.806390  Uiso  0.001267
    Ce1  Ce4+  1.0000  0.427870  0.213830  0.762200  Uiso  0.001267
    Ce1  Ce4+  1.0000  0.550820  0.310200  0.718010  Uiso  0.001267
    Ce1  Ce4+  1.0000  0.673770  0.406570  0.673830  Uiso  0.001267
    Ce1  Ce4+  1.0000  0.796720  0.502950  0.629640  Uiso  0.001267
    Ce1  Ce4+  1.0000  0.919670  0.599320  0.585460  Uiso  0.001267
    Ce1  Ce4+  1.0000  0.545900  0.063240  0.695920  Uiso  0.001267
    Ce1  Ce4+  1.0000  0.668850  0.159620  0.651740  Uiso  0.001267
    Ce1  Ce4+  1.0000  0.791800  0.255990  0.607550  Uiso  0.001267
    Ce1  Ce4+  1.0000  0.914750  0.352360  0.563370  Uiso  0.001267
    Ce1  Ce4+  1.0000  0.786880  0.009030  0.585460  Uiso  0.001267
    Ce1  Ce4+  1.0000  0.909830  0.105410  0.541270  Uiso  0.001267
    Ce1  Ce4+  1.0000  0.078690  0.912530  0.850570  Uiso  0.001267
    Ce1  Ce4+  1.0000  0.073770  0.665580  0.828480  Uiso  0.001267
    Ce1  Ce4+  1.0000  0.196720  0.761950  0.784290  Uiso  0.001267
    Ce1  Ce4+  1.0000  0.319670  0.858320  0.740110  Uiso  0.001267
    Ce1  Ce4+  1.0000  0.442620  0.954690  0.695920  Uiso  0.001267
    Ce1  Ce4+  1.0000  0.068850  0.418620  0.806390  Uiso  0.001267
    Ce1  Ce4+  1.0000  0.191800  0.514990  0.762200  Uiso  0.001267
    Ce1  Ce4+  1.0000  0.314750  0.611370  0.718010  Uiso  0.001267
    Ce1  Ce4+  1.0000  0.437700  0.707740  0.673830  Uiso  0.001267
    Ce1  Ce4+  1.0000  0.560650  0.804110  0.629640  Uiso  0.001267
    Ce1  Ce4+  1.0000  0.683600  0.900480  0.585460  Uiso  0.001267
    Ce1  Ce4+  1.0000  0.806550  0.996860  0.541270  Uiso  0.001267
    Ce1  Ce4+  1.0000  0.063930  0.171660  0.784290  Uiso  0.001267
    Ce1  Ce4+  1.0000  0.186880  0.268040  0.740110  Uiso  0.001267
    Ce1  Ce4+  1.0000  0.309830  0.364410  0.695920  Uiso  0.001267
    Ce1  Ce4+  1.0000  0.432780  0.460780  0.651740  Uiso  0.001267
    Ce1  Ce4+  1.0000  0.555740  0.557160  0.607550  Uiso  0.001267
    Ce1  Ce4+  1.0000  0.678690  0.653530  0.563370  Uiso  0.001267
    Ce1  Ce4+  1.0000  0.801640  0.749900  0.519180  Uiso  0.001267
    Ce1  Ce4+  1.0000  0.924590  0.846270  0.474990  Uiso  0.001267
    Ce1  Ce4+  1.0000  0.181970  0.021080  0.718010  Uiso  0.001267
    Ce1  Ce4+  1.0000  0.304920  0.117450  0.673830  Uiso  0.001267
    Ce1  Ce4+  1.0000  0.427870  0.213830  0.629640  Uiso  0.001267
    Ce1  Ce4+  1.0000  0.550820  0.310200  0.585460  Uiso  0.001267
    Ce1  Ce4+  1.0000  0.673770  0.406570  0.541270  Uiso  0.001267
    Ce1  Ce4+  1.0000  0.796720  0.502950  0.497090  Uiso  0.001267
    Ce1  Ce4+  1.0000  0.919670  0.599320  0.452900  Uiso  0.001267
    Ce1  Ce4+  1.0000  0.545900  0.063240  0.563370  Uiso  0.001267
    Ce1  Ce4+  1.0000  0.668850  0.159620  0.519180  Uiso  0.001267
    Ce1  Ce4+  1.0000  0.791800  0.255990  0.474990  Uiso  0.001267
    Ce1  Ce4+  1.0000  0.914750  0.352360  0.430810  Uiso  0.001267
    Ce1  Ce4+  1.0000  0.786880  0.009030  0.452900  Uiso  0.001267
    Ce1  Ce4+  1.0000  0.909830  0.105410  0.408720  Uiso  0.001267
    Ce1  Ce4+  1.0000  0.078690  0.912530  0.718010  Uiso  0.001267
    Ce1  Ce4+  1.0000  0.073770  0.665580  0.695920  Uiso  0.001267
    Ce1  Ce4+  1.0000  0.196720  0.761950  0.651740  Uiso  0.001267
    Ce1  Ce4+  1.0000  0.319670  0.858320  0.607550  Uiso  0.001267
    Ce1  Ce4+  1.0000  0.442620  0.954690  0.563370  Uiso  0.001267
    Ce1  Ce4+  1.0000  0.068850  0.418620  0.673830  Uiso  0.001267
    Ce1  Ce4+  1.0000  0.191800  0.514990  0.629640  Uiso  0.001267
    Ce1  Ce4+  1.0000  0.314750  0.611370  0.585460  Uiso  0.001267
    Ce1  Ce4+  1.0000  0.437700  0.707740  0.541270  Uiso  0.001267
    Ce1  Ce4+  1.0000  0.560650  0.804110  0.497090  Uiso  0.001267
    Ce1  Ce4+  1.0000  0.683600  0.900480  0.452900  Uiso  0.001267
    Ce1  Ce4+  1.0000  0.806550  0.996860  0.408720  Uiso  0.001267
    Ce1  Ce4+  1.0000  0.063930  0.171660  0.651740  Uiso  0.001267
    Ce1  Ce4+  1.0000  0.186880  0.268040  0.607550  Uiso  0.001267
    Ce1  Ce4+  1.0000  0.309830  0.364410  0.563370  Uiso  0.001267
    Ce1  Ce4+  1.0000  0.432780  0.460780  0.519180  Uiso  0.001267
    Ce1  Ce4+  1.0000  0.555740  0.557160  0.474990  Uiso  0.001267
    Ce1  Ce4+  1.0000  0.678690  0.653530  0.430810  Uiso  0.001267
    Ce1  Ce4+  1.0000  0.801640  0.749900  0.386620  Uiso  0.001267
    Ce1  Ce4+  1.0000  0.924590  0.846270  0.342440  Uiso  0.001267
    Ce1  Ce4+  1.0000  0.181970  0.021080  0.585460  Uiso  0.001267
    Ce1  Ce4+  1.0000  0.304920  0.117450  0.541270  Uiso  0.001267
    Ce1  Ce4+  1.0000  0.427870  0.213830  0.497090  Uiso  0.001267
    Ce1  Ce4+  1.0000  0.550820  0.310200  0.452900  Uiso  0.001267
    Ce1  Ce4+  1.0000  0.673770  0.406570  0.408720  Uiso  0.001267
    Ce1  Ce4+  1.0000  0.796720  0.502950  0.364530  Uiso  0.001267
    Ce1  Ce4+  1.0000  0.919670  0.599320  0.320350  Uiso  0.001267
    Ce1  Ce4+  1.0000  0.545900  0.063240  0.430810  Uiso  0.001267
    Ce1  Ce4+  1.0000  0.668850  0.159620  0.386620  Uiso  0.001267
    Ce1  Ce4+  1.0000  0.791800  0.255990  0.342440  Uiso  0.001267
    Ce1  Ce4+  1.0000  0.914750  0.352360  0.298250  Uiso  0.001267
    Ce1  Ce4+  1.0000  0.786880  0.009030  0.320350  Uiso  0.001267
    Ce1  Ce4+  1.0000  0.909830  0.105410  0.276160  Uiso  0.001267
    Ce1  Ce4+  1.0000  0.078690  0.912530  0.585460  Uiso  0.001267
    Ce1  Ce4+  1.0000  0.073770  0.665580  0.563370  Uiso  0.001267
    Ce1  Ce4+  1.0000  0.196720  0.761950  0.519180  Uiso  0.001267
    Ce1  Ce4+  1.0000  0.319670  0.858320  0.474990  Uiso  0.001267
    Ce1  Ce4+  1.0000  0.442620  0.954690  0.430810  Uiso  0.001267
    Ce1  Ce4+  1.0000  0.068850  0.418620  0.541270  Uiso  0.001267
    Ce1  Ce4+  1.0000  0.191800  0.514990  0.497090  Uiso  0.001267
    Ce1  Ce4+  1.0000  0.314750  0.611370  0.452900  Uiso  0.001267
    Ce1  Ce4+  1.0000  0.437700  0.707740  0.408720  Uiso  0.001267
    Ce1  Ce4+  1.0000  0.560650  0.804110  0.364530  Uiso  0.001267
    Ce1  Ce4+  1.0000  0.683600  0.900480  0.320350  Uiso  0.001267
    Ce1  Ce4+  1.0000  0.806550  0.996860  0.276160  Uiso  0.001267
    Ce1  Ce4+  1.0000  0.063930  0.171660  0.519180  Uiso  0.001267
    Ce1  Ce4+  1.0000  0.186880  0.268040  0.474990  Uiso  0.001267
    Ce1  Ce4+  1.0000  0.309830  0.364410  0.430810  Uiso  0.001267
    Ce1  Ce4+  1.0000  0.432780  0.460780  0.386620  Uiso  0.001267
    Ce1  Ce4+  1.0000  0.555740  0.557160  0.342440  Uiso  0.001267
    Ce1  Ce4+  1.0000  0.678690  0.653530  0.298250  Uiso  0.001267
    Ce1  Ce4+  1.0000  0.801640  0.749900  0.254070  Uiso  0.001267
    Ce1  Ce4+  1.0000  0.924590  0.846270  0.209880  Uiso  0.001267
    Ce1  Ce4+  1.0000  0.181970  0.021080  0.452900  Uiso  0.001267
    Ce1  Ce4+  1.0000  0.304920  0.117450  0.408720  Uiso  0.001267
    Ce1  Ce4+  1.0000  0.427870  0.213830  0.364530  Uiso  0.001267
    Ce1  Ce4+  1.0000  0.550820  0.310200  0.320350  Uiso  0.001267
    Ce1  Ce4+  1.0000  0.673770  0.406570  0.276160  Uiso  0.001267
    Ce1  Ce4+  1.0000  0.796720  0.502950  0.231970  Uiso  0.001267
    Ce1  Ce4+  1.0000  0.919670  0.599320  0.187790  Uiso  0.001267
    Ce1  Ce4+  1.0000  0.545900  0.063240  0.298250  Uiso  0.001267
    Ce1  Ce4+  1.0000  0.668850  0.159620  0.254070  Uiso  0.001267
    Ce1  Ce4+  1.0000  0.791800  0.255990  0.209880  Uiso  0.001267
    Ce1  Ce4+  1.0000  0.914750  0.352360  0.165700  Uiso  0.001267
    Ce1  Ce4+  1.0000  0.786880  0.009030  0.187790  Uiso  0.001267
    Ce1  Ce4+  1.0000  0.909830  0.105410  0.143600  Uiso  0.001267
    Ce1  Ce4+  1.0000  0.078690  0.912530  0.452900  Uiso  0.001267
    Ce1  Ce4+  1.0000  0.073770  0.665580  0.430810  Uiso  0.001267
    Ce1  Ce4+  1.0000  0.196720  0.761950  0.386620  Uiso  0.001267
    Ce1  Ce4+  1.0000  0.319670  0.858320  0.342440  Uiso  0.001267
    Ce1  Ce4+  1.0000  0.442620  0.954690  0.298250  Uiso  0.001267
    Ce1  Ce4+  1.0000  0.068850  0.418620  0.408720  Uiso  0.001267
    Ce1  Ce4+  1.0000  0.191800  0.514990  0.364530  Uiso  0.001267
    Ce1  Ce4+  1.0000  0.314750  0.611370  0.320350  Uiso  0.001267
    Ce1  Ce4+  1.0000  0.437700  0.707740  0.276160  Uiso  0.001267
    Ce1  Ce4+  1.0000  0.560650  0.804110  0.231970  Uiso  0.001267
    Ce1  Ce4+  1.0000  0.683600  0.900480  0.187790  Uiso  0.001267
    Ce1  Ce4+  1.0000  0.806550  0.996860  0.143600  Uiso  0.001267
    Ce1  Ce4+  1.0000  0.063930  0.171660  0.386620  Uiso  0.001267
    Ce1  Ce4+  1.0000  0.186880  0.268040  0.342440  Uiso  0.001267
    Ce1  Ce4+  1.0000  0.309830  0.364410  0.298250  Uiso  0.001267
    Ce1  Ce4+  1.0000  0.432780  0.460780  0.254070  Uiso  0.001267
    Ce1  Ce4+  1.0000  0.555740  0.557160  0.209880  Uiso  0.001267
    Ce1  Ce4+  1.0000  0.678690  0.653530  0.165700  Uiso  0.001267
    Ce1  Ce4+  1.0000  0.801640  0.749900  0.121510  Uiso  0.001267
    Ce1  Ce4+  1.0000  0.924590  0.846270  0.077320  Uiso  0.001267
    Ce1  Ce4+  1.0000  0.181970  0.021080  0.320350  Uiso  0.001267
    Ce1  Ce4+  1.0000  0.304920  0.117450  0.276160  Uiso  0.001267
    Ce1  Ce4+  1.0000  0.427870  0.213830  0.231970  Uiso  0.001267
    Ce1  Ce4+  1.0000  0.550820  0.310200  0.187790  Uiso  0.001267
    Ce1  Ce4+  1.0000  0.673770  0.406570  0.143600  Uiso  0.001267
    Ce1  Ce4+  1.0000  0.796720  0.502950  0.099420  Uiso  0.001267
    Ce1  Ce4+  1.0000  0.919670  0.599320  0.055230  Uiso  0.001267
    Ce1  Ce4+  1.0000  0.545900  0.063240  0.165700  Uiso  0.001267
    Ce1  Ce4+  1.0000  0.668850  0.159620  0.121510  Uiso  0.001267
    Ce1  Ce4+  1.0000  0.791800  0.255990  0.077320  Uiso  0.001267
    Ce1  Ce4+  1.0000  0.914750  0.352360  0.033140  Uiso  0.001267
    Ce1  Ce4+  1.0000  0.786880  0.009030  0.055230  Uiso  0.001267
    Ce1  Ce4+  1.0000  0.909830  0.105410  0.011050  Uiso  0.001267
    Ce1  Ce4+  1.0000  0.078690  0.912530  0.320350  Uiso  0.001267
    Ce1  Ce4+  1.0000  0.073770  0.665580  0.298250  Uiso  0.001267
    Ce1  Ce4+  1.0000  0.196720  0.761950  0.254070  Uiso  0.001267
    Ce1  Ce4+  1.0000  0.319670  0.858320  0.209880  Uiso  0.001267
    Ce1  Ce4+  1.0000  0.442620  0.954690  0.165700  Uiso  0.001267
    Ce1  Ce4+  1.0000  0.068850  0.418620  0.276160  Uiso  0.001267
    Ce1  Ce4+  1.0000  0.191800  0.514990  0.231970  Uiso  0.001267
    Ce1  Ce4+  1.0000  0.314750  0.611370  0.187790  Uiso  0.001267
    Ce1  Ce4+  1.0000  0.437700  0.707740  0.143600  Uiso  0.001267
    Ce1  Ce4+  1.0000  0.560650  0.804110  0.099420  Uiso  0.001267
    Ce1  Ce4+  1.0000  0.683600  0.900480  0.055230  Uiso  0.001267
    Ce1  Ce4+  1.0000  0.806550  0.996860  0.011050  Uiso  0.001267
    Ce1  Ce4+  1.0000  0.063930  0.171660  0.254070  Uiso  0.001267
    Ce1  Ce4+  1.0000  0.186880  0.268040  0.209880  Uiso  0.001267
    Ce1  Ce4+  1.0000  0.309830  0.364410  0.165700  Uiso  0.001267
    Ce1  Ce4+  1.0000  0.432780  0.460780  0.121510  Uiso  0.001267
    Ce1  Ce4+  1.0000  0.555740  0.557160  0.077320  Uiso  0.001267
    Ce1  Ce4+  1.0000  0.678690  0.653530  0.033140  Uiso  0.001267
    Ce1  Ce4+  1.0000  0.181970  0.021080  0.187790  Uiso  0.001267
    Ce1  Ce4+  1.0000  0.304920  0.117450  0.143600  Uiso  0.001267
    Ce1  Ce4+  1.0000  0.427870  0.213830  0.099420  Uiso  0.001267
    Ce1  Ce4+  1.0000  0.550820  0.310200  0.055230  Uiso  0.001267
    Ce1  Ce4+  1.0000  0.673770  0.406570  0.011050  Uiso  0.001267
    Ce1  Ce4+  1.0000  0.545900  0.063240  0.033140  Uiso  0.001267
    Ce1  Ce4+  1.0000  0.078690  0.912530  0.187790  Uiso  0.001267
    Ce1  Ce4+  1.0000  0.073770  0.665580  0.165700  Uiso  0.001267
    Ce1  Ce4+  1.0000  0.196720  0.761950  0.121510  Uiso  0.001267
    Ce1  Ce4+  1.0000  0.319670  0.858320  0.077320  Uiso  0.001267
    Ce1  Ce4+  1.0000  0.442620  0.954690  0.033140  Uiso  0.001267
    Ce1  Ce4+  1.0000  0.068850  0.418620  0.143600  Uiso  0.001267
    Ce1  Ce4+  1.0000  0.191800  0.514990  0.099420  Uiso  0.001267
    Ce1  Ce4+  1.0000  0.314750  0.611370  0.055230  Uiso  0.001267
    Ce1  Ce4+  1.0000  0.437700  0.707740  0.011050  Uiso  0.001267
    Ce1  Ce4+  1.0000  0.063930  0.171660  0.121510  Uiso  0.001267
    Ce1  Ce4+  1.0000  0.186880  0.268040  0.077320  Uiso  0.001267
    Ce1  Ce4+  1.0000  0.309830  0.364410  0.033140  Uiso  0.001267
    Ce1  Ce4+  1.0000  0.181970  0.021080  0.055230  Uiso  0.001267
    Ce1  Ce4+  1.0000  0.304920  0.117450  0.011050  Uiso  0.001267
    Ce1  Ce4+  1.0000  0.078690  0.912530  0.055230  Uiso  0.001267
    Ce1  Ce4+  1.0000  0.073770  0.665580  0.033140  Uiso  0.001267
    Ce1  Ce4+  1.0000  0.068850  0.418620  0.011050  Uiso  0.001267
    Ce1  Ce4+  1.0000  0.801640  0.749900  0.983130  Uiso  0.001267
    Ce1  Ce4+  1.0000  0.924590  0.846270  0.938940  Uiso  0.001267
    Ce1  Ce4+  1.0000  0.796720  0.502950  0.961040  Uiso  0.001267
    Ce1  Ce4+  1.0000  0.919670  0.599320  0.916850  Uiso  0.001267
    Ce1  Ce4+  1.0000  0.668850  0.159620  0.983130  Uiso  0.001267
    Ce1  Ce4+  1.0000  0.791800  0.255990  0.938940  Uiso  0.001267
    Ce1  Ce4+  1.0000  0.914750  0.352360  0.894760  Uiso  0.001267
    Ce1  Ce4+  1.0000  0.786880  0.009030  0.916850  Uiso  0.001267
    Ce1  Ce4+  1.0000  0.909830  0.105410  0.872660  Uiso  0.001267
    Ce1  Ce4+  1.0000  0.560650  0.804110  0.961040  Uiso  0.001267
    Ce1  Ce4+  1.0000  0.683600  0.900480  0.916850  Uiso  0.001267
    Ce1  Ce4+  1.0000  0.806550  0.996860  0.872660  Uiso  0.001267
    Ce1  Ce4+  1.0000  0.432780  0.460780  0.983130  Uiso  0.001267
    Ce1  Ce4+  1.0000  0.555740  0.557160  0.938940  Uiso  0.001267
    Ce1  Ce4+  1.0000  0.678690  0.653530  0.894760  Uiso  0.001267
    Ce1  Ce4+  1.0000  0.801640  0.749900  0.850570  Uiso  0.001267
    Ce1  Ce4+  1.0000  0.924590  0.846270  0.806390  Uiso  0.001267
    Ce1  Ce4+  1.0000  0.427870  0.213830  0.961040  Uiso  0.001267
    Ce1  Ce4+  1.0000  0.550820  0.310200  0.916850  Uiso  0.001267
    Ce1  Ce4+  1.0000  0.673770  0.406570  0.872660  Uiso  0.001267
    Ce1  Ce4+  1.0000  0.796720  0.502950  0.828480  Uiso  0.001267
    Ce1  Ce4+  1.0000  0.919670  0.599320  0.784290  Uiso  0.001267
    Ce1  Ce4+  1.0000  0.545900  0.063240  0.894760  Uiso  0.001267
    Ce1  Ce4+  1.0000  0.668850  0.159620  0.850570  Uiso  0.001267
    Ce1  Ce4+  1.0000  0.791800  0.255990  0.806390  Uiso  0.001267
    Ce1  Ce4+  1.0000  0.914750  0.352360  0.762200  Uiso  0.001267
    Ce1  Ce4+  1.0000  0.786880  0.009030  0.784290  Uiso  0.001267
    Ce1  Ce4+  1.0000  0.909830  0.105410  0.740110  Uiso  0.001267
    Ce1  Ce4+  1.0000  0.196720  0.761950  0.983130  Uiso  0.001267
    Ce1  Ce4+  1.0000  0.319670  0.858320  0.938940  Uiso  0.001267
    Ce1  Ce4+  1.0000  0.442620  0.954690  0.894760  Uiso  0.001267
    Ce1  Ce4+  1.0000  0.191800  0.514990  0.961040  Uiso  0.001267
    Ce1  Ce4+  1.0000  0.314750  0.611370  0.916850  Uiso  0.001267
    Ce1  Ce4+  1.0000  0.437700  0.707740  0.872660  Uiso  0.001267
    Ce1  Ce4+  1.0000  0.560650  0.804110  0.828480  Uiso  0.001267
    Ce1  Ce4+  1.0000  0.683600  0.900480  0.784290  Uiso  0.001267
    Ce1  Ce4+  1.0000  0.806550  0.996860  0.740110  Uiso  0.001267
    Ce1  Ce4+  1.0000  0.063930  0.171660  0.983130  Uiso  0.001267
    Ce1  Ce4+  1.0000  0.186880  0.268040  0.938940  Uiso  0.001267
    Ce1  Ce4+  1.0000  0.309830  0.364410  0.894760  Uiso  0.001267
    Ce1  Ce4+  1.0000  0.432780  0.460780  0.850570  Uiso  0.001267
    Ce1  Ce4+  1.0000  0.555740  0.557160  0.806390  Uiso  0.001267
    Ce1  Ce4+  1.0000  0.678690  0.653530  0.762200  Uiso  0.001267
    Ce1  Ce4+  1.0000  0.801640  0.749900  0.718010  Uiso  0.001267
    Ce1  Ce4+  1.0000  0.924590  0.846270  0.673830  Uiso  0.001267
    Ce1  Ce4+  1.0000  0.181970  0.021080  0.916850  Uiso  0.001267
    Ce1  Ce4+  1.0000  0.304920  0.117450  0.872660  Uiso  0.001267
    Ce1  Ce4+  1.0000  0.427870  0.213830  0.828480  Uiso  0.001267
    Ce1  Ce4+  1.0000  0.550820  0.310200  0.784290  Uiso  0.001267
    Ce1  Ce4+  1.0000  0.673770  0.406570  0.740110  Uiso  0.001267
    Ce1  Ce4+  1.0000  0.796720  0.502950  0.695920  Uiso  0.001267
    Ce1  Ce4+  1.0000  0.919670  0.599320  0.651740  Uiso  0.001267
    Ce1  Ce4+  1.0000  0.545900  0.063240  0.762200  Uiso  0.001267
    Ce1  Ce4+  1.0000  0.668850  0.159620  0.718010  Uiso  0.001267
    Ce1  Ce4+  1.0000  0.791800  0.255990  0.673830  Uiso  0.001267
    Ce1  Ce4+  1.0000  0.914750  0.352360  0.629640  Uiso  0.001267
    Ce1  Ce4+  1.0000  0.786880  0.009030  0.651740  Uiso  0.001267
    Ce1  Ce4+  1.0000  0.909830  0.105410  0.607550  Uiso  0.001267
    Ce1  Ce4+  1.0000  0.078690  0.912530  0.916850  Uiso  0.001267
    Ce1  Ce4+  1.0000  0.073770  0.665580  0.894760  Uiso  0.001267
    Ce1  Ce4+  1.0000  0.196720  0.761950  0.850570  Uiso  0.001267
    Ce1  Ce4+  1.0000  0.319670  0.858320  0.806390  Uiso  0.001267
    Ce1  Ce4+  1.0000  0.442620  0.954690  0.762200  Uiso  0.001267
    Ce1  Ce4+  1.0000  0.068850  0.418620  0.872660  Uiso  0.001267
    Ce1  Ce4+  1.0000  0.191800  0.514990  0.828480  Uiso  0.001267
    Ce1  Ce4+  1.0000  0.314750  0.611370  0.784290  Uiso  0.001267
    Ce1  Ce4+  1.0000  0.437700  0.707740  0.740110  Uiso  0.001267
    Ce1  Ce4+  1.0000  0.560650  0.804110  0.695920  Uiso  0.001267
    Ce1  Ce4+  1.0000  0.683600  0.900480  0.651740  Uiso  0.001267
    Ce1  Ce4+  1.0000  0.806550  0.996860  0.607550  Uiso  0.001267
    Ce1  Ce4+  1.0000  0.063930  0.171660  0.850570  Uiso  0.001267
    Ce1  Ce4+  1.0000  0.186880  0.268040  0.806390  Uiso  0.001267
    Ce1  Ce4+  1.0000  0.309830  0.364410  0.762200  Uiso  0.001267
    Ce1  Ce4+  1.0000  0.432780  0.460780  0.718010  Uiso  0.001267
    Ce1  Ce4+  1.0000  0.555740  0.557160  0.673830  Uiso  0.001267
    Ce1  Ce4+  1.0000  0.678690  0.653530  0.629640  Uiso  0.001267
    Ce1  Ce4+  1.0000  0.801640  0.749900  0.585460  Uiso  0.001267
    Ce1  Ce4+  1.0000  0.924590  0.846270  0.541270  Uiso  0.001267
    Ce1  Ce4+  1.0000  0.181970  0.021080  0.784290  Uiso  0.001267
    Ce1  Ce4+  1.0000  0.304920  0.117450  0.740110  Uiso  0.001267
    Ce1  Ce4+  1.0000  0.427870  0.213830  0.695920  Uiso  0.001267
    Ce1  Ce4+  1.0000  0.550820  0.310200  0.651740  Uiso  0.001267
    Ce1  Ce4+  1.0000  0.673770  0.406570  0.607550  Uiso  0.001267
    Ce1  Ce4+  1.0000  0.796720  0.502950  0.563370  Uiso  0.001267
    Ce1  Ce4+  1.0000  0.919670  0.599320  0.519180  Uiso  0.001267
    Ce1  Ce4+  1.0000  0.545900  0.063240  0.629640  Uiso  0.001267
    Ce1  Ce4+  1.0000  0.668850  0.159620  0.585460  Uiso  0.001267
    Ce1  Ce4+  1.0000  0.791800  0.255990  0.541270  Uiso  0.001267
    Ce1  Ce4+  1.0000  0.914750  0.352360  0.497090  Uiso  0.001267
    Ce1  Ce4+  1.0000  0.786880  0.009030  0.519180  Uiso  0.001267
    Ce1  Ce4+  1.0000  0.909830  0.105410  0.474990  Uiso  0.001267
    Ce1  Ce4+  1.0000  0.078690  0.912530  0.784290  Uiso  0.001267
    Ce1  Ce4+  1.0000  0.073770  0.665580  0.762200  Uiso  0.001267
    Ce1  Ce4+  1.0000  0.196720  0.761950  0.718010  Uiso  0.001267
    Ce1  Ce4+  1.0000  0.319670  0.858320  0.673830  Uiso  0.001267
    Ce1  Ce4+  1.0000  0.442620  0.954690  0.629640  Uiso  0.001267
    Ce1  Ce4+  1.0000  0.068850  0.418620  0.740110  Uiso  0.001267
    Ce1  Ce4+  1.0000  0.191800  0.514990  0.695920  Uiso  0.001267
    Ce1  Ce4+  1.0000  0.314750  0.611370  0.651740  Uiso  0.001267
    Ce1  Ce4+  1.0000  0.437700  0.707740  0.607550  Uiso  0.001267
    Ce1  Ce4+  1.0000  0.560650  0.804110  0.563370  Uiso  0.001267
    Ce1  Ce4+  1.0000  0.683600  0.900480  0.519180  Uiso  0.001267
    Ce1  Ce4+  1.0000  0.806550  0.996860  0.474990  Uiso  0.001267
    Ce1  Ce4+  1.0000  0.063930  0.171660  0.718010  Uiso  0.001267
    Ce1  Ce4+  1.0000  0.186880  0.268040  0.673830  Uiso  0.001267
    Ce1  Ce4+  1.0000  0.309830  0.364410  0.629640  Uiso  0.001267
    Ce1  Ce4+  1.0000  0.432780  0.460780  0.585460  Uiso  0.001267
    Ce1  Ce4+  1.0000  0.555740  0.557160  0.541270  Uiso  0.001267
    Ce1  Ce4+  1.0000  0.678690  0.653530  0.497090  Uiso  0.001267
    Ce1  Ce4+  1.0000  0.801640  0.749900  0.452900  Uiso  0.001267
    Ce1  Ce4+  1.0000  0.924590  0.846270  0.408720  Uiso  0.001267
    Ce1  Ce4+  1.0000  0.181970  0.021080  0.651740  Uiso  0.001267
    Ce1  Ce4+  1.0000  0.304920  0.117450  0.607550  Uiso  0.001267
    Ce1  Ce4+  1.0000  0.427870  0.213830  0.563370  Uiso  0.001267
    Ce1  Ce4+  1.0000  0.550820  0.310200  0.519180  Uiso  0.001267
    Ce1  Ce4+  1.0000  0.673770  0.406570  0.474990  Uiso  0.001267
    Ce1  Ce4+  1.0000  0.796720  0.502950  0.430810  Uiso  0.001267
    Ce1  Ce4+  1.0000  0.919670  0.599320  0.386620  Uiso  0.001267
    Ce1  Ce4+  1.0000  0.545900  0.063240  0.497090  Uiso  0.001267
    Ce1  Ce4+  1.0000  0.668850  0.159620  0.452900  Uiso  0.001267
    Ce1  Ce4+  1.0000  0.791800  0.255990  0.408720  Uiso  0.001267
    Ce1  Ce4+  1.0000  0.914750  0.352360  0.364530  Uiso  0.001267
    Ce1  Ce4+  1.0000  0.786880  0.009030  0.386620  Uiso  0.001267
    Ce1  Ce4+  1.0000  0.909830  0.105410  0.342440  Uiso  0.001267
    Ce1  Ce4+  1.0000  0.078690  0.912530  0.651740  Uiso  0.001267
    Ce1  Ce4+  1.0000  0.073770  0.665580  0.629640  Uiso  0.001267
    Ce1  Ce4+  1.0000  0.196720  0.761950  0.585460  Uiso  0.001267
    Ce1  Ce4+  1.0000  0.319670  0.858320  0.541270  Uiso  0.001267
    Ce1  Ce4+  1.0000  0.442620  0.954690  0.497090  Uiso  0.001267
    Ce1  Ce4+  1.0000  0.068850  0.418620  0.607550  Uiso  0.001267
    Ce1  Ce4+  1.0000  0.191800  0.514990  0.563370  Uiso  0.001267
    Ce1  Ce4+  1.0000  0.314750  0.611370  0.519180  Uiso  0.001267
    Ce1  Ce4+  1.0000  0.437700  0.707740  0.474990  Uiso  0.001267
    Ce1  Ce4+  1.0000  0.560650  0.804110  0.430810  Uiso  0.001267
    Ce1  Ce4+  1.0000  0.683600  0.900480  0.386620  Uiso  0.001267
    Ce1  Ce4+  1.0000  0.806550  0.996860  0.342440  Uiso  0.001267
    Ce1  Ce4+  1.0000  0.063930  0.171660  0.585460  Uiso  0.001267
    Ce1  Ce4+  1.0000  0.186880  0.268040  0.541270  Uiso  0.001267
    Ce1  Ce4+  1.0000  0.309830  0.364410  0.497090  Uiso  0.001267
    Ce1  Ce4+  1.0000  0.432780  0.460780  0.452900  Uiso  0.001267
    Ce1  Ce4+  1.0000  0.555740  0.557160  0.408720  Uiso  0.001267
    Ce1  Ce4+  1.0000  0.678690  0.653530  0.364530  Uiso  0.001267
    Ce1  Ce4+  1.0000  0.801640  0.749900  0.320350  Uiso  0.001267
    Ce1  Ce4+  1.0000  0.924590  0.846270  0.276160  Uiso  0.001267
    Ce1  Ce4+  1.0000  0.181970  0.021080  0.519180  Uiso  0.001267
    Ce1  Ce4+  1.0000  0.304920  0.117450  0.474990  Uiso  0.001267
    Ce1  Ce4+  1.0000  0.427870  0.213830  0.430810  Uiso  0.001267
    Ce1  Ce4+  1.0000  0.550820  0.310200  0.386620  Uiso  0.001267
    Ce1  Ce4+  1.0000  0.673770  0.406570  0.342440  Uiso  0.001267
    Ce1  Ce4+  1.0000  0.796720  0.502950  0.298250  Uiso  0.001267
    Ce1  Ce4+  1.0000  0.919670  0.599320  0.254070  Uiso  0.001267
    Ce1  Ce4+  1.0000  0.545900  0.063240  0.364530  Uiso  0.001267
    Ce1  Ce4+  1.0000  0.668850  0.159620  0.320350  Uiso  0.001267
    Ce1  Ce4+  1.0000  0.791800  0.255990  0.276160  Uiso  0.001267
    Ce1  Ce4+  1.0000  0.914750  0.352360  0.231970  Uiso  0.001267
    Ce1  Ce4+  1.0000  0.786880  0.009030  0.254070  Uiso  0.001267
    Ce1  Ce4+  1.0000  0.909830  0.105410  0.209880  Uiso  0.001267
    Ce1  Ce4+  1.0000  0.078690  0.912530  0.519180  Uiso  0.001267
    Ce1  Ce4+  1.0000  0.073770  0.665580  0.497090  Uiso  0.001267
    Ce1  Ce4+  1.0000  0.196720  0.761950  0.452900  Uiso  0.001267
    Ce1  Ce4+  1.0000  0.319670  0.858320  0.408720  Uiso  0.001267
    Ce1  Ce4+  1.0000  0.442620  0.954690  0.364530  Uiso  0.001267
    Ce1  Ce4+  1.0000  0.068850  0.418620  0.474990  Uiso  0.001267
    Ce1  Ce4+  1.0000  0.191800  0.514990  0.430810  Uiso  0.001267
    Ce1  Ce4+  1.0000  0.314750  0.611370  0.386620  Uiso  0.001267
    Ce1  Ce4+  1.0000  0.437700  0.707740  0.342440  Uiso  0.001267
    Ce1  Ce4+  1.0000  0.560650  0.804110  0.298250  Uiso  0.001267
    Ce1  Ce4+  1.0000  0.683600  0.900480  0.254070  Uiso  0.001267
    Ce1  Ce4+  1.0000  0.806550  0.996860  0.209880  Uiso  0.001267
    Ce1  Ce4+  1.0000  0.063930  0.171660  0.452900  Uiso  0.001267
    Ce1  Ce4+  1.0000  0.186880  0.268040  0.408720  Uiso  0.001267
    Ce1  Ce4+  1.0000  0.309830  0.364410  0.364530  Uiso  0.001267
    Ce1  Ce4+  1.0000  0.432780  0.460780  0.320350  Uiso  0.001267
    Ce1  Ce4+  1.0000  0.555740  0.557160  0.276160  Uiso  0.001267
    Ce1  Ce4+  1.0000  0.678690  0.653530  0.231970  Uiso  0.001267
    Ce1  Ce4+  1.0000  0.801640  0.749900  0.187790  Uiso  0.001267
    Ce1  Ce4+  1.0000  0.924590  0.846270  0.143600  Uiso  0.001267
    Ce1  Ce4+  1.0000  0.181970  0.021080  0.386620  Uiso  0.001267
    Ce1  Ce4+  1.0000  0.304920  0.117450  0.342440  Uiso  0.001267
    Ce1  Ce4+  1.0000  0.427870  0.213830  0.298250  Uiso  0.001267
    Ce1  Ce4+  1.0000  0.550820  0.310200  0.254070  Uiso  0.001267
    Ce1  Ce4+  1.0000  0.673770  0.406570  0.209880  Uiso  0.001267
    Ce1  Ce4+  1.0000  0.796720  0.502950  0.165700  Uiso  0.001267
    Ce1  Ce4+  1.0000  0.919670  0.599320  0.121510  Uiso  0.001267
    Ce1  Ce4+  1.0000  0.545900  0.063240  0.231970  Uiso  0.001267
    Ce1  Ce4+  1.0000  0.668850  0.159620  0.187790  Uiso  0.001267
    Ce1  Ce4+  1.0000  0.791800  0.255990  0.143600  Uiso  0.001267
    Ce1  Ce4+  1.0000  0.914750  0.352360  0.099420  Uiso  0.001267
    Ce1  Ce4+  1.0000  0.786880  0.009030  0.121510  Uiso  0.001267
    Ce1  Ce4+  1.0000  0.909830  0.105410  0.077320  Uiso  0.001267
    Ce1  Ce4+  1.0000  0.078690  0.912530  0.386620  Uiso  0.001267
    Ce1  Ce4+  1.0000  0.073770  0.665580  0.364530  Uiso  0.001267
    Ce1  Ce4+  1.0000  0.196720  0.761950  0.320350  Uiso  0.001267
    Ce1  Ce4+  1.0000  0.319670  0.858320  0.276160  Uiso  0.001267
    Ce1  Ce4+  1.0000  0.442620  0.954690  0.231970  Uiso  0.001267
    Ce1  Ce4+  1.0000  0.068850  0.418620  0.342440  Uiso  0.001267
    Ce1  Ce4+  1.0000  0.191800  0.514990  0.298250  Uiso  0.001267
    Ce1  Ce4+  1.0000  0.314750  0.611370  0.254070  Uiso  0.001267
    Ce1  Ce4+  1.0000  0.437700  0.707740  0.209880  Uiso  0.001267
    Ce1  Ce4+  1.0000  0.560650  0.804110  0.165700  Uiso  0.001267
    Ce1  Ce4+  1.0000  0.683600  0.900480  0.121510  Uiso  0.001267
    Ce1  Ce4+  1.0000  0.806550  0.996860  0.077320  Uiso  0.001267
    Ce1  Ce4+  1.0000  0.063930  0.171660  0.320350  Uiso  0.001267
    Ce1  Ce4+  1.0000  0.186880  0.268040  0.276160  Uiso  0.001267
    Ce1  Ce4+  1.0000  0.309830  0.364410  0.231970  Uiso  0.001267
    Ce1  Ce4+  1.0000  0.432780  0.460780  0.187790  Uiso  0.001267
    Ce1  Ce4+  1.0000  0.555740  0.557160  0.143600  Uiso  0.001267
    Ce1  Ce4+  1.0000  0.678690  0.653530  0.099420  Uiso  0.001267
    Ce1  Ce4+  1.0000  0.801640  0.749900  0.055230  Uiso  0.001267
    Ce1  Ce4+  1.0000  0.924590  0.846270  0.011050  Uiso  0.001267
    Ce1  Ce4+  1.0000  0.181970  0.021080  0.254070  Uiso  0.001267
    Ce1  Ce4+  1.0000  0.304920  0.117450  0.209880  Uiso  0.001267
    Ce1  Ce4+  1.0000  0.427870  0.213830  0.165700  Uiso  0.001267
    Ce1  Ce4+  1.0000  0.550820  0.310200  0.121510  Uiso  0.001267
    Ce1  Ce4+  1.0000  0.673770  0.406570  0.077320  Uiso  0.001267
    Ce1  Ce4+  1.0000  0.796720  0.502950  0.033140  Uiso  0.001267
    Ce1  Ce4+  1.0000  0.545900  0.063240  0.099420  Uiso  0.001267
    Ce1  Ce4+  1.0000  0.668850  0.159620  0.055230  Uiso  0.001267
    Ce1  Ce4+  1.0000  0.791800  0.255990  0.011050  Uiso  0.001267
    Ce1  Ce4+  1.0000  0.078690  0.912530  0.254070  Uiso  0.001267
    Ce1  Ce4+  1.0000  0.073770  0.665580  0.231970  Uiso  0.001267
    Ce1  Ce4+  1.0000  0.196720  0.761950  0.187790  Uiso  0.001267
    Ce1  Ce4+  1.0000  0.319670  0.858320  0.143600  Uiso  0.001267
    Ce1  Ce4+  1.0000  0.442620  0.954690  0.099420  Uiso  0.001267
    Ce1  Ce4+  1.0000  0.068850  0.418620  0.209880  Uiso  0.001267
    Ce1  Ce4+  1.0000  0.191800  0.514990  0.165700  Uiso  0.001267
    Ce1  Ce4+  1.0000  0.314750  0.611370  0.121510  Uiso  0.001267
    Ce1  Ce4+  1.0000  0.437700  0.707740  0.077320  Uiso  0.001267
    Ce1  Ce4+  1.0000  0.560650  0.804110  0.033140  Uiso  0.001267
    Ce1  Ce4+  1.0000  0.063930  0.171660  0.187790  Uiso  0.001267
    Ce1  Ce4+  1.0000  0.186880  0.268040  0.143600  Uiso  0.001267
    Ce1  Ce4+  1.0000  0.309830  0.364410  0.099420  Uiso  0.001267
    Ce1  Ce4+  1.0000  0.432780  0.460780  0.055230  Uiso  0.001267
    Ce1  Ce4+  1.0000  0.555740  0.557160  0.011050  Uiso  0.001267
    Ce1  Ce4+  1.0000  0.181970  0.021080  0.121510  Uiso  0.001267
    Ce1  Ce4+  1.0000  0.304920  0.117450  0.077320  Uiso  0.001267
    Ce1  Ce4+  1.0000  0.427870  0.213830  0.033140  Uiso  0.001267
    Ce1  Ce4+  1.0000  0.078690  0.912530  0.121510  Uiso  0.001267
    Ce1  Ce4+  1.0000  0.073770  0.665580  0.099420  Uiso  0.001267
    Ce1  Ce4+  1.0000  0.196720  0.761950  0.055230  Uiso  0.001267
    Ce1  Ce4+  1.0000  0.319670  0.858320  0.011050  Uiso  0.001267
    Ce1  Ce4+  1.0000  0.068850  0.418620  0.077320  Uiso  0.001267
    Ce1  Ce4+  1.0000  0.191800  0.514990  0.033140  Uiso  0.001267
    Ce1  Ce4+  1.0000  0.063930  0.171660  0.055230  Uiso  0.001267
    Ce1  Ce4+  1.0000  0.186880  0.268040  0.011050  Uiso  0.001267

# End of data_CELSLC
