#\#CIF_2.0
data_CELSLC

# Crystal data
_pd_phase_name                         'Super Cell'
_cell_length_a                         20.000000
_cell_length_b                         20.000000
_cell_length_c                         180.000000
_cell_angle_alpha                      90.0000
_cell_angle_beta                       90.0000
_cell_angle_gamma                      90.0000
_symmetry_space_group_name_H-M_alt     'P 1'
_symmetry_Int_Tables_number            1

# Symmetry operations
loop_
    _space_group_symop_id
    _space_group_symop_operation_xyz
    1    'x,y,z'

# Atomic types
loop_
    _atom_site_type_symbol
    _atom_type_oxidation_number
    Ce4+  4.0000
    O2-  -2.0000

# Atomic sites
loop_
    _atom_site_label
    _atom_site_type_symbol
    _atom_site_occupancy
    _atom_site_fract_x
    _atom_site_fract_y
    _atom_site_fract_z
    _atom_site_thermal_displace_type
    _atom_site_U_iso_or_equiv
    Ce1  Ce4+  1.0000  0.983600  0.770980  0.981900  Uiso  0.001267
    Ce1  Ce4+  1.0000  0.855730  0.427650  0.994170  Uiso  0.001267
    Ce1  Ce4+  1.0000  0.978680  0.524030  0.969630  Uiso  0.001267
    Ce1  Ce4+  1.0000  0.850820  0.180700  0.981900  Uiso  0.001267
    Ce1  Ce4+  1.0000  0.973770  0.277070  0.957350  Uiso  0.001267
    Ce1  Ce4+  1.0000  0.968850  0.030120  0.945080  Uiso  0.001267
    Ce1  Ce4+  1.0000  0.619670  0.728820  0.994170  Uiso  0.001267
    Ce1  Ce4+  1.0000  0.742620  0.825190  0.969630  Uiso  0.001267
    Ce1  Ce4+  1.0000  0.865570  0.921570  0.945080  Uiso  0.001267
    Ce1  Ce4+  1.0000  0.614750  0.481860  0.981900  Uiso  0.001267
    Ce1  Ce4+  1.0000  0.737700  0.578240  0.957350  Uiso  0.001267
    Ce1  Ce4+  1.0000  0.860650  0.674610  0.932810  Uiso  0.001267
    Ce1  Ce4+  1.0000  0.983600  0.770980  0.908260  Uiso  0.001267
    Ce1  Ce4+  1.0000  0.486880  0.138540  0.994170  Uiso  0.001267
    Ce1  Ce4+  1.0000  0.609830  0.234910  0.969630  Uiso  0.001267
    Ce1  Ce4+  1.0000  0.732780  0.331280  0.945080  Uiso  0.001267
    Ce1  Ce4+  1.0000  0.855730  0.427650  0.920530  Uiso  0.001267
    Ce1  Ce4+  1.0000  0.978680  0.524030  0.895980  Uiso  0.001267
    Ce1  Ce4+  1.0000  0.727870  0.084330  0.932810  Uiso  0.001267
    Ce1  Ce4+  1.0000  0.850820  0.180700  0.908260  Uiso  0.001267
    Ce1  Ce4+  1.0000  0.973770  0.277070  0.883710  Uiso  0.001267
    Ce1  Ce4+  1.0000  0.968850  0.030120  0.871440  Uiso  0.001267
    Ce1  Ce4+  1.0000  0.378690  0.783030  0.981900  Uiso  0.001267
    Ce1  Ce4+  1.0000  0.501640  0.879400  0.957350  Uiso  0.001267
    Ce1  Ce4+  1.0000  0.624590  0.975780  0.932810  Uiso  0.001267
    Ce1  Ce4+  1.0000  0.250820  0.439700  0.994170  Uiso  0.001267
    Ce1  Ce4+  1.0000  0.373770  0.536070  0.969630  Uiso  0.001267
    Ce1  Ce4+  1.0000  0.496720  0.632450  0.945080  Uiso  0.001267
    Ce1  Ce4+  1.0000  0.619670  0.728820  0.920530  Uiso  0.001267
    Ce1  Ce4+  1.0000  0.742620  0.825190  0.895980  Uiso  0.001267
    Ce1  Ce4+  1.0000  0.865570  0.921570  0.871440  Uiso  0.001267
    Ce1  Ce4+  1.0000  0.245900  0.192750  0.981900  Uiso  0.001267
    Ce1  Ce4+  1.0000  0.368850  0.289120  0.957350  Uiso  0.001267
    Ce1  Ce4+  1.0000  0.491800  0.385490  0.932810  Uiso  0.001267
    Ce1  Ce4+  1.0000  0.614750  0.481860  0.908260  Uiso  0.001267
    Ce1  Ce4+  1.0000  0.737700  0.578240  0.883710  Uiso  0.001267
    Ce1  Ce4+  1.0000  0.860650  0.674610  0.859160  Uiso  0.001267
    Ce1  Ce4+  1.0000  0.983600  0.770980  0.834620  Uiso  0.001267
    Ce1  Ce4+  1.0000  0.363930  0.042160  0.945080  Uiso  0.001267
    Ce1  Ce4+  1.0000  0.486880  0.138540  0.920530  Uiso  0.001267
    Ce1  Ce4+  1.0000  0.609830  0.234910  0.895980  Uiso  0.001267
    Ce1  Ce4+  1.0000  0.732780  0.331280  0.871440  Uiso  0.001267
    Ce1  Ce4+  1.0000  0.855730  0.427650  0.846890  Uiso  0.001267
    Ce1  Ce4+  1.0000  0.978680  0.524030  0.822340  Uiso  0.001267
    Ce1  Ce4+  1.0000  0.727870  0.084330  0.859160  Uiso  0.001267
    Ce1  Ce4+  1.0000  0.850820  0.180700  0.834620  Uiso  0.001267
    Ce1  Ce4+  1.0000  0.973770  0.277070  0.810070  Uiso  0.001267
    Ce1  Ce4+  1.0000  0.968850  0.030120  0.797790  Uiso  0.001267
    Ce1  Ce4+  1.0000  0.014750  0.740870  0.994170  Uiso  0.001267
    Ce1  Ce4+  1.0000  0.137700  0.837240  0.969630  Uiso  0.001267
    Ce1  Ce4+  1.0000  0.260650  0.933610  0.945080  Uiso  0.001267
    Ce1  Ce4+  1.0000  0.009840  0.493910  0.981900  Uiso  0.001267
    Ce1  Ce4+  1.0000  0.132790  0.590280  0.957350  Uiso  0.001267
    Ce1  Ce4+  1.0000  0.255740  0.686660  0.932810  Uiso  0.001267
    Ce1  Ce4+  1.0000  0.378690  0.783030  0.908260  Uiso  0.001267
    Ce1  Ce4+  1.0000  0.501640  0.879400  0.883710  Uiso  0.001267
    Ce1  Ce4+  1.0000  0.624590  0.975780  0.859160  Uiso  0.001267
    Ce1  Ce4+  1.0000  0.004920  0.246960  0.969630  Uiso  0.001267
    Ce1  Ce4+  1.0000  0.127870  0.343330  0.945080  Uiso  0.001267
    Ce1  Ce4+  1.0000  0.250820  0.439700  0.920530  Uiso  0.001267
    Ce1  Ce4+  1.0000  0.373770  0.536070  0.895980  Uiso  0.001267
    Ce1  Ce4+  1.0000  0.496720  0.632450  0.871440  Uiso  0.001267
    Ce1  Ce4+  1.0000  0.619670  0.728820  0.846890  Uiso  0.001267
    Ce1  Ce4+  1.0000  0.742620  0.825190  0.822340  Uiso  0.001267
    Ce1  Ce4+  1.0000  0.865570  0.921570  0.797790  Uiso  0.001267
    Ce1  Ce4+  1.0000  0.000000  0.000000  0.957350  Uiso  0.001267
    Ce1  Ce4+  1.0000  0.122950  0.096370  0.932810  Uiso  0.001267
    Ce1  Ce4+  1.0000  0.245900  0.192750  0.908260  Uiso  0.001267
    Ce1  Ce4+  1.0000  0.368850  0.289120  0.883710  Uiso  0.001267
    Ce1  Ce4+  1.0000  0.491800  0.385490  0.859160  Uiso  0.001267
    Ce1  Ce4+  1.0000  0.614750  0.481860  0.834620  Uiso  0.001267
    Ce1  Ce4+  1.0000  0.737700  0.578240  0.810070  Uiso  0.001267
    Ce1  Ce4+  1.0000  0.860650  0.674610  0.785520  Uiso  0.001267
    Ce1  Ce4+  1.0000  0.983600  0.770980  0.760970  Uiso  0.001267
    Ce1  Ce4+  1.0000  0.363930  0.042160  0.871440  Uiso  0.001267
    Ce1  Ce4+  1.0000  0.486880  0.138540  0.846890  Uiso  0.001267
    Ce1  Ce4+  1.0000  0.609830  0.234910  0.822340  Uiso  0.001267
    Ce1  Ce4+  1.0000  0.732780  0.331280  0.797790  Uiso  0.001267
    Ce1  Ce4+  1.0000  0.855730  0.427650  0.773250  Uiso  0.001267
    Ce1  Ce4+  1.0000  0.978680  0.524030  0.748700  Uiso  0.001267
    Ce1  Ce4+  1.0000  0.727870  0.084330  0.785520  Uiso  0.001267
    Ce1  Ce4+  1.0000  0.850820  0.180700  0.760970  Uiso  0.001267
    Ce1  Ce4+  1.0000  0.973770  0.277070  0.736430  Uiso  0.001267
    Ce1  Ce4+  1.0000  0.968850  0.030120  0.724150  Uiso  0.001267
    Ce1  Ce4+  1.0000  0.019670  0.987820  0.932810  Uiso  0.001267
    Ce1  Ce4+  1.0000  0.014750  0.740870  0.920530  Uiso  0.001267
    Ce1  Ce4+  1.0000  0.137700  0.837240  0.895980  Uiso  0.001267
    Ce1  Ce4+  1.0000  0.260650  0.933610  0.871440  Uiso  0.001267
    Ce1  Ce4+  1.0000  0.009840  0.493910  0.908260  Uiso  0.001267
    Ce1  Ce4+  1.0000  0.132790  0.590280  0.883710  Uiso  0.001267
    Ce1  Ce4+  1.0000  0.255740  0.686660  0.859160  Uiso  0.001267
    Ce1  Ce4+  1.0000  0.378690  0.783030  0.834620  Uiso  0.001267
    Ce1  Ce4+  1.0000  0.501640  0.879400  0.810070  Uiso  0.001267
    Ce1  Ce4+  1.0000  0.624590  0.975780  0.785520  Uiso  0.001267
    Ce1  Ce4+  1.0000  0.004920  0.246960  0.895980  Uiso  0.001267
    Ce1  Ce4+  1.0000  0.127870  0.343330  0.871440  Uiso  0.001267
    Ce1  Ce4+  1.0000  0.250820  0.439700  0.846890  Uiso  0.001267
    Ce1  Ce4+  1.0000  0.373770  0.536070  0.822340  Uiso  0.001267
    Ce1  Ce4+  1.0000  0.496720  0.632450  0.797790  Uiso  0.001267
    Ce1  Ce4+  1.0000  0.619670  0.728820  0.773250  Uiso  0.001267
    Ce1  Ce4+  1.0000  0.742620  0.825190  0.748700  Uiso  0.001267
    Ce1  Ce4+  1.0000  0.865570  0.921570  0.724150  Uiso  0.001267
    Ce1  Ce4+  1.0000  0.000000  0.000000  0.883710  Uiso  0.001267
    Ce1  Ce4+  1.0000  0.122950  0.096370  0.859160  Uiso  0.001267
    Ce1  Ce4+  1.0000  0.245900  0.192750  0.834620  Uiso  0.001267
    Ce1  Ce4+  1.0000  0.368850  0.289120  0.810070  Uiso  0.001267
    Ce1  Ce4+  1.0000  0.491800  0.385490  0.785520  Uiso  0.001267
    Ce1  Ce4+  1.0000  0.614750  0.481860  0.760970  Uiso  0.001267
    Ce1  Ce4+  1.0000  0.737700  0.578240  0.736430  Uiso  0.001267
    Ce1  Ce4+  1.0000  0.860650  0.674610  0.711880  Uiso  0.001267
    Ce1  Ce4+  1.0000  0.983600  0.770980  0.687330  Uiso  0.001267
    Ce1  Ce4+  1.0000  0.363930  0.042160  0.797790  Uiso  0.001267
    Ce1  Ce4+  1.0000  0.486880  0.138540  0.773250  Uiso  0.001267
    Ce1  Ce4+  1.0000  0.609830  0.234910  0.748700  Uiso  0.001267
    Ce1  Ce4+  1.0000  0.732780  0.331280  0.724150  Uiso  0.001267
    Ce1  Ce4+  1.0000  0.855730  0.427650  0.699600  Uiso  0.001267
    Ce1  Ce4+  1.0000  0.978680  0.524030  0.675060  Uiso  0.001267
    Ce1  Ce4+  1.0000  0.727870  0.084330  0.711880  Uiso  0.001267
    Ce1  Ce4+  1.0000  0.850820  0.180700  0.687330  Uiso  0.001267
    Ce1  Ce4+  1.0000  0.973770  0.277070  0.662780  Uiso  0.001267
    Ce1  Ce4+  1.0000  0.968850  0.030120  0.650510  Uiso  0.001267
    Ce1  Ce4+  1.0000  0.019670  0.987820  0.859160  Uiso  0.001267
    Ce1  Ce4+  1.0000  0.014750  0.740870  0.846890  Uiso  0.001267
    Ce1  Ce4+  1.0000  0.137700  0.837240  0.822340  Uiso  0.001267
    Ce1  Ce4+  1.0000  0.260650  0.933610  0.797790  Uiso  0.001267
    Ce1  Ce4+  1.0000  0.009840  0.493910  0.834620  Uiso  0.001267
    Ce1  Ce4+  1.0000  0.132790  0.590280  0.810070  Uiso  0.001267
    Ce1  Ce4+  1.0000  0.255740  0.686660  0.785520  Uiso  0.001267
    Ce1  Ce4+  1.0000  0.378690  0.783030  0.760970  Uiso  0.001267
    Ce1  Ce4+  1.0000  0.501640  0.879400  0.736430  Uiso  0.001267
    Ce1  Ce4+  1.0000  0.624590  0.975780  0.711880  Uiso  0.001267
    Ce1  Ce4+  1.0000  0.004920  0.246960  0.822340  Uiso  0.001267
    Ce1  Ce4+  1.0000  0.127870  0.343330  0.797790  Uiso  0.001267
    Ce1  Ce4+  1.0000  0.250820  0.439700  0.773250  Uiso  0.001267
    Ce1  Ce4+  1.0000  0.373770  0.536070  0.748700  Uiso  0.001267
    Ce1  Ce4+  1.0000  0.496720  0.632450  0.724150  Uiso  0.001267
    Ce1  Ce4+  1.0000  0.619670  0.728820  0.699600  Uiso  0.001267
    Ce1  Ce4+  1.0000  0.742620  0.825190  0.675060  Uiso  0.001267
    Ce1  Ce4+  1.0000  0.865570  0.921570  0.650510  Uiso  0.001267
    Ce1  Ce4+  1.0000  0.000000  0.000000  0.810070  Uiso  0.001267
    Ce1  Ce4+  1.0000  0.122950  0.096370  0.785520  Uiso  0.001267
    Ce1  Ce4+  1.0000  0.245900  0.192750  0.760970  Uiso  0.001267
    Ce1  Ce4+  1.0000  0.368850  0.289120  0.736430  Uiso  0.001267
    Ce1  Ce4+  1.0000  0.491800  0.385490  0.711880  Uiso  0.001267
    Ce1  Ce4+  1.0000  0.614750  0.481860  0.687330  Uiso  0.001267
    Ce1  Ce4+  1.0000  0.737700  0.578240  0.662780  Uiso  0.001267
    Ce1  Ce4+  1.0000  0.860650  0.674610  0.638240  Uiso  0.001267
    Ce1  Ce4+  1.0000  0.983600  0.770980  0.613690  Uiso  0.001267
    Ce1  Ce4+  1.0000  0.363930  0.042160  0.724150  Uiso  0.001267
    Ce1  Ce4+  1.0000  0.486880  0.138540  0.699600  Uiso  0.001267
    Ce1  Ce4+  1.0000  0.609830  0.234910  0.675060  Uiso  0.001267
    Ce1  Ce4+  1.0000  0.732780  0.331280  0.650510  Uiso  0.001267
    Ce1  Ce4+  1.0000  0.855730  0.427650  0.625960  Uiso  0.001267
    Ce1  Ce4+  1.0000  0.978680  0.524030  0.601410  Uiso  0.001267
    Ce1  Ce4+  1.0000  0.727870  0.084330  0.638240  Uiso  0.001267
    Ce1  Ce4+  1.0000  0.850820  0.180700  0.613690  Uiso  0.001267
    Ce1  Ce4+  1.0000  0.973770  0.277070  0.589140  Uiso  0.001267
    Ce1  Ce4+  1.0000  0.968850  0.030120  0.576870  Uiso  0.001267
    Ce1  Ce4+  1.0000  0.019670  0.987820  0.785520  Uiso  0.001267
    Ce1  Ce4+  1.0000  0.014750  0.740870  0.773250  Uiso  0.001267
    Ce1  Ce4+  1.0000  0.137700  0.837240  0.748700  Uiso  0.001267
    Ce1  Ce4+  1.0000  0.260650  0.933610  0.724150  Uiso  0.001267
    Ce1  Ce4+  1.0000  0.009840  0.493910  0.760970  Uiso  0.001267
    Ce1  Ce4+  1.0000  0.132790  0.590280  0.736430  Uiso  0.001267
    Ce1  Ce4+  1.0000  0.255740  0.686660  0.711880  Uiso  0.001267
    Ce1  Ce4+  1.0000  0.378690  0.783030  0.687330  Uiso  0.001267
    Ce1  Ce4+  1.0000  0.501640  0.879400  0.662780  Uiso  0.001267
    Ce1  Ce4+  1.0000  0.624590  0.975780  0.638240  Uiso  0.001267
    Ce1  Ce4+  1.0000  0.004920  0.246960  0.748700  Uiso  0.001267
    Ce1  Ce4+  1.0000  0.127870  0.343330  0.724150  Uiso  0.001267
    Ce1  Ce4+  1.0000  0.250820  0.439700  0.699600  Uiso  0.001267
    Ce1  Ce4+  1.0000  0.373770  0.536070  0.675060  Uiso  0.001267
    Ce1  Ce4+  1.0000  0.496720  0.632450  0.650510  Uiso  0.001267
    Ce1  Ce4+  1.0000  0.619670  0.728820  0.625960  Uiso  0.001267
    Ce1  Ce4+  1.0000  0.742620  0.825190  0.601410  Uiso  0.001267
    Ce1  Ce4+  1.0000  0.865570  0.921570  0.576870  Uiso  0.001267
    Ce1  Ce4+  1.0000  0.000000  0.000000  0.736430  Uiso  0.001267
    Ce1  Ce4+  1.0000  0.122950  0.096370  0.711880  Uiso  0.001267
    Ce1  Ce4+  1.0000  0.245900  0.192750  0.687330  Uiso  0.001267
    Ce1  Ce4+  1.0000  0.368850  0.289120  0.662780  Uiso  0.001267
    Ce1  Ce4+  1.0000  0.491800  0.385490  0.638240  Uiso  0.001267
    Ce1  Ce4+  1.0000  0.614750  0.481860  0.613690  Uiso  0.001267
    Ce1  Ce4+  1.0000  0.737700  0.578240  0.589140  Uiso  0.001267
    Ce1  Ce4+  1.0000  0.860650  0.674610  0.564590  Uiso  0.001267
    Ce1  Ce4+  1.0000  0.983600  0.770980  0.540050  Uiso  0.001267
    Ce1  Ce4+  1.0000  0.363930  0.042160  0.650510  Uiso  0.001267
    Ce1  Ce4+  1.0000  0.486880  0.138540  0.625960  Uiso  0.001267
    Ce1  Ce4+  1.0000  0.609830  0.234910  0.601410  Uiso  0.001267
    Ce1  Ce4+  1.0000  0.732780  0.331280  0.576870  Uiso  0.001267
    Ce1  Ce4+  1.0000  0.855730  0.427650  0.552320  Uiso  0.001267
    Ce1  Ce4+  1.0000  0.978680  0.524030  0.527770  Uiso  0.001267
    Ce1  Ce4+  1.0000  0.727870  0.084330  0.564590  Uiso  0.001267
    Ce1  Ce4+  1.0000  0.850820  0.180700  0.540050  Uiso  0.001267
    Ce1  Ce4+  1.0000  0.973770  0.277070  0.515500  Uiso  0.001267
    Ce1  Ce4+  1.0000  0.968850  0.030120  0.503220  Uiso  0.001267
    Ce1  Ce4+  1.0000  0.019670  0.987820  0.711880  Uiso  0.001267
    Ce1  Ce4+  1.0000  0.014750  0.740870  0.699600  Uiso  0.001267
    Ce1  Ce4+  1.0000  0.137700  0.837240  0.675060  Uiso  0.001267
    Ce1  Ce4+  1.0000  0.260650  0.933610  0.650510  Uiso  0.001267
    Ce1  Ce4+  1.0000  0.009840  0.493910  0.687330  Uiso  0.001267
    Ce1  Ce4+  1.0000  0.132790  0.590280  0.662780  Uiso  0.001267
    Ce1  Ce4+  1.0000  0.255740  0.686660  0.638240  Uiso  0.001267
    Ce1  Ce4+  1.0000  0.378690  0.783030  0.613690  Uiso  0.001267
    Ce1  Ce4+  1.0000  0.501640  0.879400  0.589140  Uiso  0.001267
    Ce1  Ce4+  1.0000  0.624590  0.975780  0.564590  Uiso  0.001267
    Ce1  Ce4+  1.0000  0.004920  0.246960  0.675060  Uiso  0.001267
    Ce1  Ce4+  1.0000  0.127870  0.343330  0.650510  Uiso  0.001267
    Ce1  Ce4+  1.0000  0.250820  0.439700  0.625960  Uiso  0.001267
    Ce1  Ce4+  1.0000  0.373770  0.536070  0.601410  Uiso  0.001267
    Ce1  Ce4+  1.0000  0.496720  0.632450  0.576870  Uiso  0.001267
    Ce1  Ce4+  1.0000  0.619670  0.728820  0.552320  Uiso  0.001267
    Ce1  Ce4+  1.0000  0.742620  0.825190  0.527770  Uiso  0.001267
    Ce1  Ce4+  1.0000  0.865570  0.921570  0.503220  Uiso  0.001267
    Ce1  Ce4+  1.0000  0.000000  0.000000  0.662780  Uiso  0.001267
    Ce1  Ce4+  1.0000  0.122950  0.096370  0.638240  Uiso  0.001267
    Ce1  Ce4+  1.0000  0.245900  0.192750  0.613690  Uiso  0.001267
    Ce1  Ce4+  1.0000  0.368850  0.289120  0.589140  Uiso  0.001267
    Ce1  Ce4+  1.0000  0.491800  0.385490  0.564590  Uiso  0.001267
    Ce1  Ce4+  1.0000  0.614750  0.481860  0.540050  Uiso  0.001267
    Ce1  Ce4+  1.0000  0.737700  0.578240  0.515500  Uiso  0.001267
    Ce1  Ce4+  1.0000  0.860650  0.674610  0.490950  Uiso  0.001267
    Ce1  Ce4+  1.0000  0.983600  0.770980  0.466400  Uiso  0.001267
    Ce1  Ce4+  1.0000  0.363930  0.042160  0.576870  Uiso  0.001267
    Ce1  Ce4+  1.0000  0.486880  0.138540  0.552320  Uiso  0.001267
    Ce1  Ce4+  1.0000  0.609830  0.234910  0.527770  Uiso  0.001267
    Ce1  Ce4+  1.0000  0.732780  0.331280  0.503220  Uiso  0.001267
    Ce1  Ce4+  1.0000  0.855730  0.427650  0.478680  Uiso  0.001267
    Ce1  Ce4+  1.0000  0.978680  0.524030  0.454130  Uiso  0.001267
    Ce1  Ce4+  1.0000  0.727870  0.084330  0.490950  Uiso  0.001267
    Ce1  Ce4+  1.0000  0.850820  0.180700  0.466400  Uiso  0.001267
    Ce1  Ce4+  1.0000  0.973770  0.277070  0.441860  Uiso  0.001267
    Ce1  Ce4+  1.0000  0.968850  0.030120  0.429580  Uiso  0.001267
    Ce1  Ce4+  1.0000  0.019670  0.987820  0.638240  Uiso  0.001267
    Ce1  Ce4+  1.0000  0.014750  0.740870  0.625960  Uiso  0.001267
    Ce1  Ce4+  1.0000  0.137700  0.837240  0.601410  Uiso  0.001267
    Ce1  Ce4+  1.0000  0.260650  0.933610  0.576870  Uiso  0.001267
    Ce1  Ce4+  1.0000  0.009840  0.493910  0.613690  Uiso  0.001267
    Ce1  Ce4+  1.0000  0.132790  0.590280  0.589140  Uiso  0.001267
    Ce1  Ce4+  1.0000  0.255740  0.686660  0.564590  Uiso  0.001267
    Ce1  Ce4+  1.0000  0.378690  0.783030  0.540050  Uiso  0.001267
    Ce1  Ce4+  1.0000  0.501640  0.879400  0.515500  Uiso  0.001267
    Ce1  Ce4+  1.0000  0.624590  0.975780  0.490950  Uiso  0.001267
    Ce1  Ce4+  1.0000  0.004920  0.246960  0.601410  Uiso  0.001267
    Ce1  Ce4+  1.0000  0.127870  0.343330  0.576870  Uiso  0.001267
    Ce1  Ce4+  1.0000  0.250820  0.439700  0.552320  Uiso  0.001267
    Ce1  Ce4+  1.0000  0.373770  0.536070  0.527770  Uiso  0.001267
    Ce1  Ce4+  1.0000  0.496720  0.632450  0.503220  Uiso  0.001267
    Ce1  Ce4+  1.0000  0.619670  0.728820  0.478680  Uiso  0.001267
    Ce1  Ce4+  1.0000  0.742620  0.825190  0.454130  Uiso  0.001267
    Ce1  Ce4+  1.0000  0.865570  0.921570  0.429580  Uiso  0.001267
    Ce1  Ce4+  1.0000  0.000000  0.000000  0.589140  Uiso  0.001267
    Ce1  Ce4+  1.0000  0.122950  0.096370  0.564590  Uiso  0.001267
    Ce1  Ce4+  1.0000  0.245900  0.192750  0.540050  Uiso  0.001267
    Ce1  Ce4+  1.0000  0.368850  0.289120  0.515500  Uiso  0.001267
    Ce1  Ce4+  1.0000  0.491800  0.385490  0.490950  Uiso  0.001267
    Ce1  Ce4+  1.0000  0.614750  0.481860  0.466400  Uiso  0.001267
    Ce1  Ce4+  1.0000  0.737700  0.578240  0.441860  Uiso  0.001267
    Ce1  Ce4+  1.0000  0.860650  0.674610  0.417310  Uiso  0.001267
    Ce1  Ce4+  1.0000  0.983600  0.770980  0.392760  Uiso  0.001267
    Ce1  Ce4+  1.0000  0.363930  0.042160  0.503220  Uiso  0.001267
    Ce1  Ce4+  1.0000  0.486880  0.138540  0.478680  Uiso  0.001267
    Ce1  Ce4+  1.0000  0.609830  0.234910  0.454130  Uiso  0.001267
    Ce1  Ce4+  1.0000  0.732780  0.331280  0.429580  Uiso  0.001267
    Ce1  Ce4+  1.0000  0.855730  0.427650  0.405030  Uiso  0.001267
    Ce1  Ce4+  1.0000  0.978680  0.524030  0.380490  Uiso  0.001267
    Ce1  Ce4+  1.0000  0.727870  0.084330  0.417310  Uiso  0.001267
    Ce1  Ce4+  1.0000  0.850820  0.180700  0.392760  Uiso  0.001267
    Ce1  Ce4+  1.0000  0.973770  0.277070  0.368210  Uiso  0.001267
    Ce1  Ce4+  1.0000  0.968850  0.030120  0.355940  Uiso  0.001267
    Ce1  Ce4+  1.0000  0.019670  0.987820  0.564590  Uiso  0.001267
    Ce1  Ce4+  1.0000  0.014750  0.740870  0.552320  Uiso  0.001267
    Ce1  Ce4+  1.0000  0.137700  0.837240  0.527770  Uiso  0.001267
    Ce1  Ce4+  1.0000  0.260650  0.933610  0.503220  Uiso  0.001267
    Ce1  Ce4+  1.0000  0.009840  0.493910  0.540050  Uiso  0.001267
    Ce1  Ce4+  1.0000  0.132790  0.590280  0.515500  Uiso  0.001267
    Ce1  Ce4+  1.0000  0.255740  0.686660  0.490950  Uiso  0.001267
    Ce1  Ce4+  1.0000  0.378690  0.783030  0.466400  Uiso  0.001267
    Ce1  Ce4+  1.0000  0.501640  0.879400  0.441860  Uiso  0.001267
    Ce1  Ce4+  1.0000  0.624590  0.975780  0.417310  Uiso  0.001267
    Ce1  Ce4+  1.0000  0.004920  0.246960  0.527770  Uiso  0.001267
    Ce1  Ce4+  1.0000  0.127870  0.343330  0.503220  Uiso  0.001267
    Ce1  Ce4+  1.0000  0.250820  0.439700  0.478680  Uiso  0.001267
    Ce1  Ce4+  1.0000  0.373770  0.536070  0.454130  Uiso  0.001267
    Ce1  Ce4+  1.0000  0.496720  0.632450  0.429580  Uiso  0.001267
    Ce1  Ce4+  1.0000  0.619670  0.728820  0.405030  Uiso  0.001267
    Ce1  Ce4+  1.0000  0.742620  0.825190  0.380490  Uiso  0.001267
    Ce1  Ce4+  1.0000  0.865570  0.921570  0.355940  Uiso  0.001267
    Ce1  Ce4+  1.0000  0.000000  0.000000  0.515500  Uiso  0.001267
    Ce1  Ce4+  1.0000  0.122950  0.096370  0.490950  Uiso  0.001267
    Ce1  Ce4+  1.0000  0.245900  0.192750  0.466400  Uiso  0.001267
    Ce1  Ce4+  1.0000  0.368850  0.289120  0.441860  Uiso  0.001267
    Ce1  Ce4+  1.0000  0.491800  0.385490  0.417310  Uiso  0.001267
    Ce1  Ce4+  1.0000  0.614750  0.481860  0.392760  Uiso  0.001267
    Ce1  Ce4+  1.0000  0.737700  0.578240  0.368210  Uiso  0.001267
    Ce1  Ce4+  1.0000  0.860650  0.674610  0.343670  Uiso  0.001267
    Ce1  Ce4+  1.0000  0.983600  0.770980  0.319120  Uiso  0.001267
    Ce1  Ce4+  1.0000  0.363930  0.042160  0.429580  Uiso  0.001267
    Ce1  Ce4+  1.0000  0.486880  0.138540  0.405030  Uiso  0.001267
    Ce1  Ce4+  1.0000  0.609830  0.234910  0.380490  Uiso  0.001267
    Ce1  Ce4+  1.0000  0.732780  0.331280  0.355940  Uiso  0.001267
    Ce1  Ce4+  1.0000  0.855730  0.427650  0.331390  Uiso  0.001267
    Ce1  Ce4+  1.0000  0.978680  0.524030  0.306840  Uiso  0.001267
    Ce1  Ce4+  1.0000  0.727870  0.084330  0.343670  Uiso  0.001267
    Ce1  Ce4+  1.0000  0.850820  0.180700  0.319120  Uiso  0.001267
    Ce1  Ce4+  1.0000  0.973770  0.277070  0.294570  Uiso  0.001267
    Ce1  Ce4+  1.0000  0.968850  0.030120  0.282300  Uiso  0.001267
    Ce1  Ce4+  1.0000  0.019670  0.987820  0.490950  Uiso  0.001267
    Ce1  Ce4+  1.0000  0.014750  0.740870  0.478680  Uiso  0.001267
    Ce1  Ce4+  1.0000  0.137700  0.837240  0.454130  Uiso  0.001267
    Ce1  Ce4+  1.0000  0.260650  0.933610  0.429580  Uiso  0.001267
    Ce1  Ce4+  1.0000  0.009840  0.493910  0.466400  Uiso  0.001267
    Ce1  Ce4+  1.0000  0.132790  0.590280  0.441860  Uiso  0.001267
    Ce1  Ce4+  1.0000  0.255740  0.686660  0.417310  Uiso  0.001267
    Ce1  Ce4+  1.0000  0.378690  0.783030  0.392760  Uiso  0.001267
    Ce1  Ce4+  1.0000  0.501640  0.879400  0.368210  Uiso  0.001267
    Ce1  Ce4+  1.0000  0.624590  0.975780  0.343670  Uiso  0.001267
    Ce1  Ce4+  1.0000  0.004920  0.246960  0.454130  Uiso  0.001267
    Ce1  Ce4+  1.0000  0.127870  0.343330  0.429580  Uiso  0.001267
    Ce1  Ce4+  1.0000  0.250820  0.439700  0.405030  Uiso  0.001267
    Ce1  Ce4+  1.0000  0.373770  0.536070  0.380490  Uiso  0.001267
    Ce1  Ce4+  1.0000  0.496720  0.632450  0.355940  Uiso  0.001267
    Ce1  Ce4+  1.0000  0.619670  0.728820  0.331390  Uiso  0.001267
    Ce1  Ce4+  1.0000  0.742620  0.825190  0.306840  Uiso  0.001267
    Ce1  Ce4+  1.0000  0.865570  0.921570  0.282300  Uiso  0.001267
    Ce1  Ce4+  1.0000  0.000000  0.000000  0.441860  Uiso  0.001267
    Ce1  Ce4+  1.0000  0.122950  0.096370  0.417310  Uiso  0.001267
    Ce1  Ce4+  1.0000  0.245900  0.192750  0.392760  Uiso  0.001267
    Ce1  Ce4+  1.0000  0.368850  0.289120  0.368210  Uiso  0.001267
    Ce1  Ce4+  1.0000  0.491800  0.385490  0.343670  Uiso  0.001267
    Ce1  Ce4+  1.0000  0.614750  0.481860  0.319120  Uiso  0.001267
    Ce1  Ce4+  1.0000  0.737700  0.578240  0.294570  Uiso  0.001267
    Ce1  Ce4+  1.0000  0.860650  0.674610  0.270020  Uiso  0.001267
    Ce1  Ce4+  1.0000  0.983600  0.770980  0.245480  Uiso  0.001267
    Ce1  Ce4+  1.0000  0.363930  0.042160  0.355940  Uiso  0.001267
    Ce1  Ce4+  1.0000  0.486880  0.138540  0.331390  Uiso  0.001267
    Ce1  Ce4+  1.0000  0.609830  0.234910  0.306840  Uiso  0.001267
    Ce1  Ce4+  1.0000  0.732780  0.331280  0.282300  Uiso  0.001267
    Ce1  Ce4+  1.0000  0.855730  0.427650  0.257750  Uiso  0.001267
    Ce1  Ce4+  1.0000  0.978680  0.524030  0.233200  Uiso  0.001267
    Ce1  Ce4+  1.0000  0.727870  0.084330  0.270020  Uiso  0.001267
    Ce1  Ce4+  1.0000  0.850820  0.180700  0.245480  Uiso  0.001267
    Ce1  Ce4+  1.0000  0.973770  0.277070  0.220930  Uiso  0.001267
    Ce1  Ce4+  1.0000  0.968850  0.030120  0.208650  Uiso  0.001267
    Ce1  Ce4+  1.0000  0.019670  0.987820  0.417310  Uiso  0.001267
    Ce1  Ce4+  1.0000  0.014750  0.740870  0.405030  Uiso  0.001267
    Ce1  Ce4+  1.0000  0.137700  0.837240  0.380490  Uiso  0.001267
    Ce1  Ce4+  1.0000  0.260650  0.933610  0.355940  Uiso  0.001267
    Ce1  Ce4+  1.0000  0.009840  0.493910  0.392760  Uiso  0.001267
    Ce1  Ce4+  1.0000  0.132790  0.590280  0.368210  Uiso  0.001267
    Ce1  Ce4+  1.0000  0.255740  0.686660  0.343670  Uiso  0.001267
    Ce1  Ce4+  1.0000  0.378690  0.783030  0.319120  Uiso  0.001267
    Ce1  Ce4+  1.0000  0.501640  0.879400  0.294570  Uiso  0.001267
    Ce1  Ce4+  1.0000  0.624590  0.975780  0.270020  Uiso  0.001267
    Ce1  Ce4+  1.0000  0.004920  0.246960  0.380490  Uiso  0.001267
    Ce1  Ce4+  1.0000  0.127870  0.343330  0.355940  Uiso  0.001267
    Ce1  Ce4+  1.0000  0.250820  0.439700  0.331390  Uiso  0.001267
    Ce1  Ce4+  1.0000  0.373770  0.536070  0.306840  Uiso  0.001267
    Ce1  Ce4+  1.0000  0.496720  0.632450  0.282300  Uiso  0.001267
    Ce1  Ce4+  1.0000  0.619670  0.728820  0.257750  Uiso  0.001267
    Ce1  Ce4+  1.0000  0.742620  0.825190  0.233200  Uiso  0.001267
    Ce1  Ce4+  1.0000  0.865570  0.921570  0.208650  Uiso  0.001267
    Ce1  Ce4+  1.0000  0.000000  0.000000  0.368210  Uiso  0.001267
    Ce1  Ce4+  1.0000  0.122950  0.096370  0.343670  Uiso  0.001267
    Ce1  Ce4+  1.0000  0.245900  0.192750  0.319120  Uiso  0.001267
    Ce1  Ce4+  1.0000  0.368850  0.289120  0.294570  Uiso  0.001267
    Ce1  Ce4+  1.0000  0.491800  0.385490  0.270020  Uiso  0.001267
    Ce1  Ce4+  1.0000  0.614750  0.481860  0.245480  Uiso  0.001267
    Ce1  Ce4+  1.0000  0.737700  0.578240  0.220930  Uiso  0.001267
    Ce1  Ce4+  1.0000  0.860650  0.674610  0.196380  Uiso  0.001267
    Ce1  Ce4+  1.0000  0.983600  0.770980  0.171830  Uiso  0.001267
    Ce1  Ce4+  1.0000  0.363930  0.042160  0.282300  Uiso  0.001267
    Ce1  Ce4+  1.0000  0.486880  0.138540  0.257750  Uiso  0.001267
    Ce1  Ce4+  1.0000  0.609830  0.234910  0.233200  Uiso  0.001267
    Ce1  Ce4+  1.0000  0.732780  0.331280  0.208650  Uiso  0.001267
    Ce1  Ce4+  1.0000  0.855730  0.427650  0.184110  Uiso  0.001267
    Ce1  Ce4+  1.0000  0.978680  0.524030  0.159560  Uiso  0.001267
    Ce1  Ce4+  1.0000  0.727870  0.084330  0.196380  Uiso  0.001267
    Ce1  Ce4+  1.0000  0.850820  0.180700  0.171830  Uiso  0.001267
    Ce1  Ce4+  1.0000  0.973770  0.277070  0.147290  Uiso  0.001267
    Ce1  Ce4+  1.0000  0.968850  0.030120  0.135010  Uiso  0.001267
    Ce1  Ce4+  1.0000  0.019670  0.987820  0.343670  Uiso  0.001267
    Ce1  Ce4+  1.0000  0.014750  0.740870  0.331390  Uiso  0.001267
    Ce1  Ce4+  1.0000  0.137700  0.837240  0.306840  Uiso  0.001267
    Ce1  Ce4+  1.0000  0.260650  0.933610  0.282300  Uiso  0.001267
    Ce1  Ce4+  1.0000  0.009840  0.493910  0.319120  Uiso  0.001267
    Ce1  Ce4+  1.0000  0.132790  0.590280  0.294570  Uiso  0.001267
    Ce1  Ce4+  1.0000  0.255740  0.686660  0.270020  Uiso  0.001267
    Ce1  Ce4+  1.0000  0.378690  0.783030  0.245480  Uiso  0.001267
    Ce1  Ce4+  1.0000  0.501640  0.879400  0.220930  Uiso  0.001267
    Ce1  Ce4+  1.0000  0.624590  0.975780  0.196380  Uiso  0.001267
    Ce1  Ce4+  1.0000  0.004920  0.246960  0.306840  Uiso  0.001267
    Ce1  Ce4+  1.0000  0.127870  0.343330  0.282300  Uiso  0.001267
    Ce1  Ce4+  1.0000  0.250820  0.439700  0.257750  Uiso  0.001267
    Ce1  Ce4+  1.0000  0.373770  0.536070  0.233200  Uiso  0.001267
    Ce1  Ce4+  1.0000  0.496720  0.632450  0.208650  Uiso  0.001267
    Ce1  Ce4+  1.0000  0.619670  0.728820  0.184110  Uiso  0.001267
    Ce1  Ce4+  1.0000  0.742620  0.825190  0.159560  Uiso  0.001267
    Ce1  Ce4+  1.0000  0.865570  0.921570  0.135010  Uiso  0.001267
    Ce1  Ce4+  1.0000  0.000000  0.000000  0.294570  Uiso  0.001267
    Ce1  Ce4+  1.0000  0.122950  0.096370  0.270020  Uiso  0.001267
    Ce1  Ce4+  1.0000  0.245900  0.192750  0.245480  Uiso  0.001267
    Ce1  Ce4+  1.0000  0.368850  0.289120  0.220930  Uiso  0.001267
    Ce1  Ce4+  1.0000  0.491800  0.385490  0.196380  Uiso  0.001267
    Ce1  Ce4+  1.0000  0.614750  0.481860  0.171830  Uiso  0.001267
    Ce1  Ce4+  1.0000  0.737700  0.578240  0.147290  Uiso  0.001267
    Ce1  Ce4+  1.0000  0.860650  0.674610  0.122740  Uiso  0.001267
    Ce1  Ce4+  1.0000  0.983600  0.770980  0.098190  Uiso  0.001267
    Ce1  Ce4+  1.0000  0.363930  0.042160  0.208650  Uiso  0.001267
    Ce1  Ce4+  1.0000  0.486880  0.138540  0.184110  Uiso  0.001267
    Ce1  Ce4+  1.0000  0.609830  0.234910  0.159560  Uiso  0.001267
    Ce1  Ce4+  1.0000  0.732780  0.331280  0.135010  Uiso  0.001267
    Ce1  Ce4+  1.0000  0.855730  0.427650  0.110460  Uiso  0.001267
    Ce1  Ce4+  1.0000  0.978680  0.524030  0.085920  Uiso  0.001267
    Ce1  Ce4+  1.0000  0.727870  0.084330  0.122740  Uiso  0.001267
    Ce1  Ce4+  1.0000  0.850820  0.180700  0.098190  Uiso  0.001267
    Ce1  Ce4+  1.0000  0.973770  0.277070  0.073640  Uiso  0.001267
    Ce1  Ce4+  1.0000  0.968850  0.030120  0.061370  Uiso  0.001267
    Ce1  Ce4+  1.0000  0.019670  0.987820  0.270020  Uiso  0.001267
    Ce1  Ce4+  1.0000  0.014750  0.740870  0.257750  Uiso  0.001267
    Ce1  Ce4+  1.0000  0.137700  0.837240  0.233200  Uiso  0.001267
    Ce1  Ce4+  1.0000  0.260650  0.933610  0.208650  Uiso  0.001267
    Ce1  Ce4+  1.0000  0.009840  0.493910  0.245480  Uiso  0.001267
    Ce1  Ce4+  1.0000  0.132790  0.590280  0.220930  Uiso  0.001267
    Ce1  Ce4+  1.0000  0.255740  0.686660  0.196380  Uiso  0.001267
    Ce1  Ce4+  1.0000  0.378690  0.783030  0.171830  Uiso  0.001267
    Ce1  Ce4+  1.0000  0.501640  0.879400  0.147290  Uiso  0.001267
    Ce1  Ce4+  1.0000  0.624590  0.975780  0.122740  Uiso  0.001267
    Ce1  Ce4+  1.0000  0.004920  0.246960  0.233200  Uiso  0.001267
    Ce1  Ce4+  1.0000  0.127870  0.343330  0.208650  Uiso  0.001267
    Ce1  Ce4+  1.0000  0.250820  0.439700  0.184110  Uiso  0.001267
    Ce1  Ce4+  1.0000  0.373770  0.536070  0.159560  Uiso  0.001267
    Ce1  Ce4+  1.0000  0.496720  0.632450  0.135010  Uiso  0.001267
    Ce1  Ce4+  1.0000  0.619670  0.728820  0.110460  Uiso  0.001267
    Ce1  Ce4+  1.0000  0.742620  0.825190  0.085920  Uiso  0.001267
    Ce1  Ce4+  1.0000  0.865570  0.921570  0.061370  Uiso  0.001267
    Ce1  Ce4+  1.0000  0.000000  0.000000  0.220930  Uiso  0.001267
    Ce1  Ce4+  1.0000  0.122950  0.096370  0.196380  Uiso  0.001267
    Ce1  Ce4+  1.0000  0.245900  0.192750  0.171830  Uiso  0.001267
    Ce1  Ce4+  1.0000  0.368850  0.289120  0.147290  Uiso  0.001267
    Ce1  Ce4+  1.0000  0.491800  0.385490  0.122740  Uiso  0.001267
    Ce1  Ce4+  1.0000  0.614750  0.481860  0.098190  Uiso  0.001267
    Ce1  Ce4+  1.0000  0.737700  0.578240  0.073640  Uiso  0.001267
    Ce1  Ce4+  1.0000  0.860650  0.674610  0.049100  Uiso  0.001267
    Ce1  Ce4+  1.0000  0.983600  0.770980  0.024550  Uiso  0.001267
    Ce1  Ce4+  1.0000  0.363930  0.042160  0.135010  Uiso  0.001267
    Ce1  Ce4+  1.0000  0.486880  0.138540  0.110460  Uiso  0.001267
    Ce1  Ce4+  1.0000  0.609830  0.234910  0.085920  Uiso  0.001267
    Ce1  Ce4+  1.0000  0.732780  0.331280  0.061370  Uiso  0.001267
    Ce1  Ce4+  1.0000  0.855730  0.427650  0.036820  Uiso  0.001267
    Ce1  Ce4+  1.0000  0.978680  0.524030  0.012270  Uiso  0.001267
    Ce1  Ce4+  1.0000  0.727870  0.084330  0.049100  Uiso  0.001267
    Ce1  Ce4+  1.0000  0.850820  0.180700  0.024550  Uiso  0.001267
    Ce1  Ce4+  1.0000  0.973770  0.277070  0.000000  Uiso  0.001267
    Ce1  Ce4+  1.0000  0.019670  0.987820  0.196380  Uiso  0.001267
    Ce1  Ce4+  1.0000  0.014750  0.740870  0.184110  Uiso  0.001267
    Ce1  Ce4+  1.0000  0.137700  0.837240  0.159560  Uiso  0.001267
    Ce1  Ce4+  1.0000  0.260650  0.933610  0.135010  Uiso  0.001267
    Ce1  Ce4+  1.0000  0.009840  0.493910  0.171830  Uiso  0.001267
    Ce1  Ce4+  1.0000  0.132790  0.590280  0.147290  Uiso  0.001267
    Ce1  Ce4+  1.0000  0.255740  0.686660  0.122740  Uiso  0.001267
    Ce1  Ce4+  1.0000  0.378690  0.783030  0.098190  Uiso  0.001267
    Ce1  Ce4+  1.0000  0.501640  0.879400  0.073640  Uiso  0.001267
    Ce1  Ce4+  1.0000  0.624590  0.975780  0.049100  Uiso  0.001267
    Ce1  Ce4+  1.0000  0.004920  0.246960  0.159560  Uiso  0.001267
    Ce1  Ce4+  1.0000  0.127870  0.343330  0.135010  Uiso  0.001267
    Ce1  Ce4+  1.0000  0.250820  0.439700  0.110460  Uiso  0.001267
    Ce1  Ce4+  1.0000  0.373770  0.536070  0.085920  Uiso  0.001267
    Ce1  Ce4+  1.0000  0.496720  0.632450  0.061370  Uiso  0.001267
    Ce1  Ce4+  1.0000  0.619670  0.728820  0.036820  Uiso  0.001267
    Ce1  Ce4+  1.0000  0.742620  0.825190  0.012270  Uiso  0.001267
    Ce1  Ce4+  1.0000  0.000000  0.000000  0.147290  Uiso  0.001267
    Ce1  Ce4+  1.0000  0.122950  0.096370  0.122740  Uiso  0.001267
    Ce1  Ce4+  1.0000  0.245900  0.192750  0.098190  Uiso  0.001267
    Ce1  Ce4+  1.0000  0.368850  0.289120  0.073640  Uiso  0.001267
    Ce1  Ce4+  1.0000  0.491800  0.385490  0.049100  Uiso  0.001267
    Ce1  Ce4+  1.0000  0.614750  0.481860  0.024550  Uiso  0.001267
    Ce1  Ce4+  1.0000  0.737700  0.578240  0.000000  Uiso  0.001267
    Ce1  Ce4+  1.0000  0.363930  0.042160  0.061370  Uiso  0.001267
    Ce1  Ce4+  1.0000  0.486880  0.138540  0.036820  Uiso  0.001267
    Ce1  Ce4+  1.0000  0.609830  0.234910  0.012270  Uiso  0.001267
    Ce1  Ce4+  1.0000  0.019670  0.987820  0.122740  Uiso  0.001267
    Ce1  Ce4+  1.0000  0.014750  0.740870  0.110460  Uiso  0.001267
    Ce1  Ce4+  1.0000  0.137700  0.837240  0.085920  Uiso  0.001267
    Ce1  Ce4+  1.0000  0.260650  0.933610  0.061370  Uiso  0.001267
    Ce1  Ce4+  1.0000  0.009840  0.493910  0.098190  Uiso  0.001267
    Ce1  Ce4+  1.0000  0.132790  0.590280  0.073640  Uiso  0.001267
    Ce1  Ce4+  1.0000  0.255740  0.686660  0.049100  Uiso  0.001267
    Ce1  Ce4+  1.0000  0.378690  0.783030  0.024550  Uiso  0.001267
    Ce1  Ce4+  1.0000  0.501640  0.879400  0.000000  Uiso  0.001267
    Ce1  Ce4+  1.0000  0.004920  0.246960  0.085920  Uiso  0.001267
    Ce1  Ce4+  1.0000  0.127870  0.343330  0.061370  Uiso  0.001267
    Ce1  Ce4+  1.0000  0.250820  0.439700  0.036820  Uiso  0.001267
    Ce1  Ce4+  1.0000  0.373770  0.536070  0.012270  Uiso  0.001267
    Ce1  Ce4+  1.0000  0.000000  0.000000  0.073640  Uiso  0.001267
    Ce1  Ce4+  1.0000  0.122950  0.096370  0.049100  Uiso  0.001267
    Ce1  Ce4+  1.0000  0.245900  0.192750  0.024550  Uiso  0.001267
    Ce1  Ce4+  1.0000  0.368850  0.289120  0.000000  Uiso  0.001267
    Ce1  Ce4+  1.0000  0.019670  0.987820  0.049100  Uiso  0.001267
    Ce1  Ce4+  1.0000  0.014750  0.740870  0.036820  Uiso  0.001267
    Ce1  Ce4+  1.0000  0.137700  0.837240  0.012270  Uiso  0.001267
    Ce1  Ce4+  1.0000  0.009840  0.493910  0.024550  Uiso  0.001267
    Ce1  Ce4+  1.0000  0.132790  0.590280  0.000000  Uiso  0.001267
    Ce1  Ce4+  1.0000  0.004920  0.246960  0.012270  Uiso  0.001267
    O1  O2-  1.0000  0.957780  0.993850  0.981900  Uiso  0.025330
    O1  O2-  1.0000  0.829910  0.650520  0.994170  Uiso  0.025330
    O1  O2-  1.0000  0.952860  0.746890  0.969630  Uiso  0.025330
    O1  O2-  1.0000  0.825000  0.403560  0.981900  Uiso  0.025330
    O1  O2-  1.0000  0.947950  0.499930  0.957350  Uiso  0.025330
    O1  O2-  1.0000  0.697130  0.060230  0.994170  Uiso  0.025330
    O1  O2-  1.0000  0.820080  0.156610  0.969630  Uiso  0.025330
    O1  O2-  1.0000  0.943030  0.252980  0.945080  Uiso  0.025330
    O1  O2-  1.0000  0.938110  0.006020  0.932810  Uiso  0.025330
    O1  O2-  1.0000  0.593850  0.951680  0.994170  Uiso  0.025330
    O1  O2-  1.0000  0.588930  0.704730  0.981900  Uiso  0.025330
    O1  O2-  1.0000  0.711880  0.801100  0.957350  Uiso  0.025330
    O1  O2-  1.0000  0.834830  0.897470  0.932810  Uiso  0.025330
    O1  O2-  1.0000  0.957780  0.993850  0.908260  Uiso  0.025330
    O1  O2-  1.0000  0.461060  0.361400  0.994170  Uiso  0.025330
    O1  O2-  1.0000  0.584010  0.457770  0.969630  Uiso  0.025330
    O1  O2-  1.0000  0.706960  0.554140  0.945080  Uiso  0.025330
    O1  O2-  1.0000  0.829910  0.650520  0.920530  Uiso  0.025330
    O1  O2-  1.0000  0.952860  0.746890  0.895980  Uiso  0.025330
    O1  O2-  1.0000  0.456150  0.114440  0.981900  Uiso  0.025330
    O1  O2-  1.0000  0.579100  0.210820  0.957350  Uiso  0.025330
    O1  O2-  1.0000  0.702050  0.307190  0.932810  Uiso  0.025330
    O1  O2-  1.0000  0.825000  0.403560  0.908260  Uiso  0.025330
    O1  O2-  1.0000  0.947950  0.499930  0.883710  Uiso  0.025330
    O1  O2-  1.0000  0.697130  0.060230  0.920530  Uiso  0.025330
    O1  O2-  1.0000  0.820080  0.156610  0.895980  Uiso  0.025330
    O1  O2-  1.0000  0.943030  0.252980  0.871440  Uiso  0.025330
    O1  O2-  1.0000  0.938110  0.006020  0.859160  Uiso  0.025330
    O1  O2-  1.0000  0.225000  0.662560  0.994170  Uiso  0.025330
    O1  O2-  1.0000  0.347950  0.758940  0.969630  Uiso  0.025330
    O1  O2-  1.0000  0.470900  0.855310  0.945080  Uiso  0.025330
    O1  O2-  1.0000  0.593850  0.951680  0.920530  Uiso  0.025330
    O1  O2-  1.0000  0.220080  0.415610  0.981900  Uiso  0.025330
    O1  O2-  1.0000  0.343030  0.511980  0.957350  Uiso  0.025330
    O1  O2-  1.0000  0.465980  0.608350  0.932810  Uiso  0.025330
    O1  O2-  1.0000  0.588930  0.704730  0.908260  Uiso  0.025330
    O1  O2-  1.0000  0.711880  0.801100  0.883710  Uiso  0.025330
    O1  O2-  1.0000  0.834830  0.897470  0.859160  Uiso  0.025330
    O1  O2-  1.0000  0.957780  0.993850  0.834620  Uiso  0.025330
    O1  O2-  1.0000  0.092210  0.072280  0.994170  Uiso  0.025330
    O1  O2-  1.0000  0.215160  0.168650  0.969630  Uiso  0.025330
    O1  O2-  1.0000  0.338110  0.265030  0.945080  Uiso  0.025330
    O1  O2-  1.0000  0.461060  0.361400  0.920530  Uiso  0.025330
    O1  O2-  1.0000  0.584010  0.457770  0.895980  Uiso  0.025330
    O1  O2-  1.0000  0.706960  0.554140  0.871440  Uiso  0.025330
    O1  O2-  1.0000  0.829910  0.650520  0.846890  Uiso  0.025330
    O1  O2-  1.0000  0.952860  0.746890  0.822340  Uiso  0.025330
    O1  O2-  1.0000  0.333200  0.018070  0.932810  Uiso  0.025330
    O1  O2-  1.0000  0.456150  0.114440  0.908260  Uiso  0.025330
    O1  O2-  1.0000  0.579100  0.210820  0.883710  Uiso  0.025330
    O1  O2-  1.0000  0.702050  0.307190  0.859160  Uiso  0.025330
    O1  O2-  1.0000  0.825000  0.403560  0.834620  Uiso  0.025330
    O1  O2-  1.0000  0.947950  0.499930  0.810070  Uiso  0.025330
    O1  O2-  1.0000  0.697130  0.060230  0.846890  Uiso  0.025330
    O1  O2-  1.0000  0.820080  0.156610  0.822340  Uiso  0.025330
    O1  O2-  1.0000  0.943030  0.252980  0.797790  Uiso  0.025330
    O1  O2-  1.0000  0.938110  0.006020  0.785520  Uiso  0.025330
    O1  O2-  1.0000  0.106970  0.813150  0.957350  Uiso  0.025330
    O1  O2-  1.0000  0.229920  0.909520  0.932810  Uiso  0.025330
    O1  O2-  1.0000  0.102050  0.566190  0.945080  Uiso  0.025330
    O1  O2-  1.0000  0.225000  0.662560  0.920530  Uiso  0.025330
    O1  O2-  1.0000  0.347950  0.758940  0.895980  Uiso  0.025330
    O1  O2-  1.0000  0.470900  0.855310  0.871440  Uiso  0.025330
    O1  O2-  1.0000  0.593850  0.951680  0.846890  Uiso  0.025330
    O1  O2-  1.0000  0.097130  0.319240  0.932810  Uiso  0.025330
    O1  O2-  1.0000  0.220080  0.415610  0.908260  Uiso  0.025330
    O1  O2-  1.0000  0.343030  0.511980  0.883710  Uiso  0.025330
    O1  O2-  1.0000  0.465980  0.608350  0.859160  Uiso  0.025330
    O1  O2-  1.0000  0.588930  0.704730  0.834620  Uiso  0.025330
    O1  O2-  1.0000  0.711880  0.801100  0.810070  Uiso  0.025330
    O1  O2-  1.0000  0.834830  0.897470  0.785520  Uiso  0.025330
    O1  O2-  1.0000  0.957780  0.993850  0.760970  Uiso  0.025330
    O1  O2-  1.0000  0.092210  0.072280  0.920530  Uiso  0.025330
    O1  O2-  1.0000  0.215160  0.168650  0.895980  Uiso  0.025330
    O1  O2-  1.0000  0.338110  0.265030  0.871440  Uiso  0.025330
    O1  O2-  1.0000  0.461060  0.361400  0.846890  Uiso  0.025330
    O1  O2-  1.0000  0.584010  0.457770  0.822340  Uiso  0.025330
    O1  O2-  1.0000  0.706960  0.554140  0.797790  Uiso  0.025330
    O1  O2-  1.0000  0.829910  0.650520  0.773250  Uiso  0.025330
    O1  O2-  1.0000  0.952860  0.746890  0.748700  Uiso  0.025330
    O1  O2-  1.0000  0.333200  0.018070  0.859160  Uiso  0.025330
    O1  O2-  1.0000  0.456150  0.114440  0.834620  Uiso  0.025330
    O1  O2-  1.0000  0.579100  0.210820  0.810070  Uiso  0.025330
    O1  O2-  1.0000  0.702050  0.307190  0.785520  Uiso  0.025330
    O1  O2-  1.0000  0.825000  0.403560  0.760970  Uiso  0.025330
    O1  O2-  1.0000  0.947950  0.499930  0.736430  Uiso  0.025330
    O1  O2-  1.0000  0.697130  0.060230  0.773250  Uiso  0.025330
    O1  O2-  1.0000  0.820080  0.156610  0.748700  Uiso  0.025330
    O1  O2-  1.0000  0.943030  0.252980  0.724150  Uiso  0.025330
    O1  O2-  1.0000  0.938110  0.006020  0.711880  Uiso  0.025330
    O1  O2-  1.0000  0.106970  0.813150  0.883710  Uiso  0.025330
    O1  O2-  1.0000  0.229920  0.909520  0.859160  Uiso  0.025330
    O1  O2-  1.0000  0.102050  0.566190  0.871440  Uiso  0.025330
    O1  O2-  1.0000  0.225000  0.662560  0.846890  Uiso  0.025330
    O1  O2-  1.0000  0.347950  0.758940  0.822340  Uiso  0.025330
    O1  O2-  1.0000  0.470900  0.855310  0.797790  Uiso  0.025330
    O1  O2-  1.0000  0.593850  0.951680  0.773250  Uiso  0.025330
    O1  O2-  1.0000  0.097130  0.319240  0.859160  Uiso  0.025330
    O1  O2-  1.0000  0.220080  0.415610  0.834620  Uiso  0.025330
    O1  O2-  1.0000  0.343030  0.511980  0.810070  Uiso  0.025330
    O1  O2-  1.0000  0.465980  0.608350  0.785520  Uiso  0.025330
    O1  O2-  1.0000  0.588930  0.704730  0.760970  Uiso  0.025330
    O1  O2-  1.0000  0.711880  0.801100  0.736430  Uiso  0.025330
    O1  O2-  1.0000  0.834830  0.897470  0.711880  Uiso  0.025330
    O1  O2-  1.0000  0.957780  0.993850  0.687330  Uiso  0.025330
    O1  O2-  1.0000  0.092210  0.072280  0.846890  Uiso  0.025330
    O1  O2-  1.0000  0.215160  0.168650  0.822340  Uiso  0.025330
    O1  O2-  1.0000  0.338110  0.265030  0.797790  Uiso  0.025330
    O1  O2-  1.0000  0.461060  0.361400  0.773250  Uiso  0.025330
    O1  O2-  1.0000  0.584010  0.457770  0.748700  Uiso  0.025330
    O1  O2-  1.0000  0.706960  0.554140  0.724150  Uiso  0.025330
    O1  O2-  1.0000  0.829910  0.650520  0.699600  Uiso  0.025330
    O1  O2-  1.0000  0.952860  0.746890  0.675060  Uiso  0.025330
    O1  O2-  1.0000  0.333200  0.018070  0.785520  Uiso  0.025330
    O1  O2-  1.0000  0.456150  0.114440  0.760970  Uiso  0.025330
    O1  O2-  1.0000  0.579100  0.210820  0.736430  Uiso  0.025330
    O1  O2-  1.0000  0.702050  0.307190  0.711880  Uiso  0.025330
    O1  O2-  1.0000  0.825000  0.403560  0.687330  Uiso  0.025330
    O1  O2-  1.0000  0.947950  0.499930  0.662780  Uiso  0.025330
    O1  O2-  1.0000  0.697130  0.060230  0.699600  Uiso  0.025330
    O1  O2-  1.0000  0.820080  0.156610  0.675060  Uiso  0.025330
    O1  O2-  1.0000  0.943030  0.252980  0.650510  Uiso  0.025330
    O1  O2-  1.0000  0.938110  0.006020  0.638240  Uiso  0.025330
    O1  O2-  1.0000  0.106970  0.813150  0.810070  Uiso  0.025330
    O1  O2-  1.0000  0.229920  0.909520  0.785520  Uiso  0.025330
    O1  O2-  1.0000  0.102050  0.566190  0.797790  Uiso  0.025330
    O1  O2-  1.0000  0.225000  0.662560  0.773250  Uiso  0.025330
    O1  O2-  1.0000  0.347950  0.758940  0.748700  Uiso  0.025330
    O1  O2-  1.0000  0.470900  0.855310  0.724150  Uiso  0.025330
    O1  O2-  1.0000  0.593850  0.951680  0.699600  Uiso  0.025330
    O1  O2-  1.0000  0.097130  0.319240  0.785520  Uiso  0.025330
    O1  O2-  1.0000  0.220080  0.415610  0.760970  Uiso  0.025330
    O1  O2-  1.0000  0.343030  0.511980  0.736430  Uiso  0.025330
    O1  O2-  1.0000  0.465980  0.608350  0.711880  Uiso  0.025330
    O1  O2-  1.0000  0.588930  0.704730  0.687330  Uiso  0.025330
    O1  O2-  1.0000  0.711880  0.801100  0.662780  Uiso  0.025330
    O1  O2-  1.0000  0.834830  0.897470  0.638240  Uiso  0.025330
    O1  O2-  1.0000  0.957780  0.993850  0.613690  Uiso  0.025330
    O1  O2-  1.0000  0.092210  0.072280  0.773250  Uiso  0.025330
    O1  O2-  1.0000  0.215160  0.168650  0.748700  Uiso  0.025330
    O1  O2-  1.0000  0.338110  0.265030  0.724150  Uiso  0.025330
    O1  O2-  1.0000  0.461060  0.361400  0.699600  Uiso  0.025330
    O1  O2-  1.0000  0.584010  0.457770  0.675060  Uiso  0.025330
    O1  O2-  1.0000  0.706960  0.554140  0.650510  Uiso  0.025330
    O1  O2-  1.0000  0.829910  0.650520  0.625960  Uiso  0.025330
    O1  O2-  1.0000  0.952860  0.746890  0.601410  Uiso  0.025330
    O1  O2-  1.0000  0.333200  0.018070  0.711880  Uiso  0.025330
    O1  O2-  1.0000  0.456150  0.114440  0.687330  Uiso  0.025330
    O1  O2-  1.0000  0.579100  0.210820  0.662780  Uiso  0.025330
    O1  O2-  1.0000  0.702050  0.307190  0.638240  Uiso  0.025330
    O1  O2-  1.0000  0.825000  0.403560  0.613690  Uiso  0.025330
    O1  O2-  1.0000  0.947950  0.499930  0.589140  Uiso  0.025330
    O1  O2-  1.0000  0.697130  0.060230  0.625960  Uiso  0.025330
    O1  O2-  1.0000  0.820080  0.156610  0.601410  Uiso  0.025330
    O1  O2-  1.0000  0.943030  0.252980  0.576870  Uiso  0.025330
    O1  O2-  1.0000  0.938110  0.006020  0.564590  Uiso  0.025330
    O1  O2-  1.0000  0.106970  0.813150  0.736430  Uiso  0.025330
    O1  O2-  1.0000  0.229920  0.909520  0.711880  Uiso  0.025330
    O1  O2-  1.0000  0.102050  0.566190  0.724150  Uiso  0.025330
    O1  O2-  1.0000  0.225000  0.662560  0.699600  Uiso  0.025330
    O1  O2-  1.0000  0.347950  0.758940  0.675060  Uiso  0.025330
    O1  O2-  1.0000  0.470900  0.855310  0.650510  Uiso  0.025330
    O1  O2-  1.0000  0.593850  0.951680  0.625960  Uiso  0.025330
    O1  O2-  1.0000  0.097130  0.319240  0.711880  Uiso  0.025330
    O1  O2-  1.0000  0.220080  0.415610  0.687330  Uiso  0.025330
    O1  O2-  1.0000  0.343030  0.511980  0.662780  Uiso  0.025330
    O1  O2-  1.0000  0.465980  0.608350  0.638240  Uiso  0.025330
    O1  O2-  1.0000  0.588930  0.704730  0.613690  Uiso  0.025330
    O1  O2-  1.0000  0.711880  0.801100  0.589140  Uiso  0.025330
    O1  O2-  1.0000  0.834830  0.897470  0.564590  Uiso  0.025330
    O1  O2-  1.0000  0.957780  0.993850  0.540050  Uiso  0.025330
    O1  O2-  1.0000  0.092210  0.072280  0.699600  Uiso  0.025330
    O1  O2-  1.0000  0.215160  0.168650  0.675060  Uiso  0.025330
    O1  O2-  1.0000  0.338110  0.265030  0.650510  Uiso  0.025330
    O1  O2-  1.0000  0.461060  0.361400  0.625960  Uiso  0.025330
    O1  O2-  1.0000  0.584010  0.457770  0.601410  Uiso  0.025330
    O1  O2-  1.0000  0.706960  0.554140  0.576870  Uiso  0.025330
    O1  O2-  1.0000  0.829910  0.650520  0.552320  Uiso  0.025330
    O1  O2-  1.0000  0.952860  0.746890  0.527770  Uiso  0.025330
    O1  O2-  1.0000  0.333200  0.018070  0.638240  Uiso  0.025330
    O1  O2-  1.0000  0.456150  0.114440  0.613690  Uiso  0.025330
    O1  O2-  1.0000  0.579100  0.210820  0.589140  Uiso  0.025330
    O1  O2-  1.0000  0.702050  0.307190  0.564590  Uiso  0.025330
    O1  O2-  1.0000  0.825000  0.403560  0.540050  Uiso  0.025330
    O1  O2-  1.0000  0.947950  0.499930  0.515500  Uiso  0.025330
    O1  O2-  1.0000  0.697130  0.060230  0.552320  Uiso  0.025330
    O1  O2-  1.0000  0.820080  0.156610  0.527770  Uiso  0.025330
    O1  O2-  1.0000  0.943030  0.252980  0.503220  Uiso  0.025330
    O1  O2-  1.0000  0.938110  0.006020  0.490950  Uiso  0.025330
    O1  O2-  1.0000  0.106970  0.813150  0.662780  Uiso  0.025330
    O1  O2-  1.0000  0.229920  0.909520  0.638240  Uiso  0.025330
    O1  O2-  1.0000  0.102050  0.566190  0.650510  Uiso  0.025330
    O1  O2-  1.0000  0.225000  0.662560  0.625960  Uiso  0.025330
    O1  O2-  1.0000  0.347950  0.758940  0.601410  Uiso  0.025330
    O1  O2-  1.0000  0.470900  0.855310  0.576870  Uiso  0.025330
    O1  O2-  1.0000  0.593850  0.951680  0.552320  Uiso  0.025330
    O1  O2-  1.0000  0.097130  0.319240  0.638240  Uiso  0.025330
    O1  O2-  1.0000  0.220080  0.415610  0.613690  Uiso  0.025330
    O1  O2-  1.0000  0.343030  0.511980  0.589140  Uiso  0.025330
    O1  O2-  1.0000  0.465980  0.608350  0.564590  Uiso  0.025330
    O1  O2-  1.0000  0.588930  0.704730  0.540050  Uiso  0.025330
    O1  O2-  1.0000  0.711880  0.801100  0.515500  Uiso  0.025330
    O1  O2-  1.0000  0.834830  0.897470  0.490950  Uiso  0.025330
    O1  O2-  1.0000  0.957780  0.993850  0.466400  Uiso  0.025330
    O1  O2-  1.0000  0.092210  0.072280  0.625960  Uiso  0.025330
    O1  O2-  1.0000  0.215160  0.168650  0.601410  Uiso  0.025330
    O1  O2-  1.0000  0.338110  0.265030  0.576870  Uiso  0.025330
    O1  O2-  1.0000  0.461060  0.361400  0.552320  Uiso  0.025330
    O1  O2-  1.0000  0.584010  0.457770  0.527770  Uiso  0.025330
    O1  O2-  1.0000  0.706960  0.554140  0.503220  Uiso  0.025330
    O1  O2-  1.0000  0.829910  0.650520  0.478680  Uiso  0.025330
    O1  O2-  1.0000  0.952860  0.746890  0.454130  Uiso  0.025330
    O1  O2-  1.0000  0.333200  0.018070  0.564590  Uiso  0.025330
    O1  O2-  1.0000  0.456150  0.114440  0.540050  Uiso  0.025330
    O1  O2-  1.0000  0.579100  0.210820  0.515500  Uiso  0.025330
    O1  O2-  1.0000  0.702050  0.307190  0.490950  Uiso  0.025330
    O1  O2-  1.0000  0.825000  0.403560  0.466400  Uiso  0.025330
    O1  O2-  1.0000  0.947950  0.499930  0.441860  Uiso  0.025330
    O1  O2-  1.0000  0.697130  0.060230  0.478680  Uiso  0.025330
    O1  O2-  1.0000  0.820080  0.156610  0.454130  Uiso  0.025330
    O1  O2-  1.0000  0.943030  0.252980  0.429580  Uiso  0.025330
    O1  O2-  1.0000  0.938110  0.006020  0.417310  Uiso  0.025330
    O1  O2-  1.0000  0.106970  0.813150  0.589140  Uiso  0.025330
    O1  O2-  1.0000  0.229920  0.909520  0.564590  Uiso  0.025330
    O1  O2-  1.0000  0.102050  0.566190  0.576870  Uiso  0.025330
    O1  O2-  1.0000  0.225000  0.662560  0.552320  Uiso  0.025330
    O1  O2-  1.0000  0.347950  0.758940  0.527770  Uiso  0.025330
    O1  O2-  1.0000  0.470900  0.855310  0.503220  Uiso  0.025330
    O1  O2-  1.0000  0.593850  0.951680  0.478680  Uiso  0.025330
    O1  O2-  1.0000  0.097130  0.319240  0.564590  Uiso  0.025330
    O1  O2-  1.0000  0.220080  0.415610  0.540050  Uiso  0.025330
    O1  O2-  1.0000  0.343030  0.511980  0.515500  Uiso  0.025330
    O1  O2-  1.0000  0.465980  0.608350  0.490950  Uiso  0.025330
    O1  O2-  1.0000  0.588930  0.704730  0.466400  Uiso  0.025330
    O1  O2-  1.0000  0.711880  0.801100  0.441860  Uiso  0.025330
    O1  O2-  1.0000  0.834830  0.897470  0.417310  Uiso  0.025330
    O1  O2-  1.0000  0.957780  0.993850  0.392760  Uiso  0.025330
    O1  O2-  1.0000  0.092210  0.072280  0.552320  Uiso  0.025330
    O1  O2-  1.0000  0.215160  0.168650  0.527770  Uiso  0.025330
    O1  O2-  1.0000  0.338110  0.265030  0.503220  Uiso  0.025330
    O1  O2-  1.0000  0.461060  0.361400  0.478680  Uiso  0.025330
    O1  O2-  1.0000  0.584010  0.457770  0.454130  Uiso  0.025330
    O1  O2-  1.0000  0.706960  0.554140  0.429580  Uiso  0.025330
    O1  O2-  1.0000  0.829910  0.650520  0.405030  Uiso  0.025330
    O1  O2-  1.0000  0.952860  0.746890  0.380490  Uiso  0.025330
    O1  O2-  1.0000  0.333200  0.018070  0.490950  Uiso  0.025330
    O1  O2-  1.0000  0.456150  0.114440  0.466400  Uiso  0.025330
    O1  O2-  1.0000  0.579100  0.210820  0.441860  Uiso  0.025330
    O1  O2-  1.0000  0.702050  0.307190  0.417310  Uiso  0.025330
    O1  O2-  1.0000  0.825000  0.403560  0.392760  Uiso  0.025330
    O1  O2-  1.0000  0.947950  0.499930  0.368210  Uiso  0.025330
    O1  O2-  1.0000  0.697130  0.060230  0.405030  Uiso  0.025330
    O1  O2-  1.0000  0.820080  0.156610  0.380490  Uiso  0.025330
    O1  O2-  1.0000  0.943030  0.252980  0.355940  Uiso  0.025330
    O1  O2-  1.0000  0.938110  0.006020  0.343670  Uiso  0.025330
    O1  O2-  1.0000  0.106970  0.813150  0.515500  Uiso  0.025330
    O1  O2-  1.0000  0.229920  0.909520  0.490950  Uiso  0.025330
    O1  O2-  1.0000  0.102050  0.566190  0.503220  Uiso  0.025330
    O1  O2-  1.0000  0.225000  0.662560  0.478680  Uiso  0.025330
    O1  O2-  1.0000  0.347950  0.758940  0.454130  Uiso  0.025330
    O1  O2-  1.0000  0.470900  0.855310  0.429580  Uiso  0.025330
    O1  O2-  1.0000  0.593850  0.951680  0.405030  Uiso  0.025330
    O1  O2-  1.0000  0.097130  0.319240  0.490950  Uiso  0.025330
    O1  O2-  1.0000  0.220080  0.415610  0.466400  Uiso  0.025330
    O1  O2-  1.0000  0.343030  0.511980  0.441860  Uiso  0.025330
    O1  O2-  1.0000  0.465980  0.608350  0.417310  Uiso  0.025330
    O1  O2-  1.0000  0.588930  0.704730  0.392760  Uiso  0.025330
    O1  O2-  1.0000  0.711880  0.801100  0.368210  Uiso  0.025330
    O1  O2-  1.0000  0.834830  0.897470  0.343670  Uiso  0.025330
    O1  O2-  1.0000  0.957780  0.993850  0.319120  Uiso  0.025330
    O1  O2-  1.0000  0.092210  0.072280  0.478680  Uiso  0.025330
    O1  O2-  1.0000  0.215160  0.168650  0.454130  Uiso  0.025330
    O1  O2-  1.0000  0.338110  0.265030  0.429580  Uiso  0.025330
    O1  O2-  1.0000  0.461060  0.361400  0.405030  Uiso  0.025330
    O1  O2-  1.0000  0.584010  0.457770  0.380490  Uiso  0.025330
    O1  O2-  1.0000  0.706960  0.554140  0.355940  Uiso  0.025330
    O1  O2-  1.0000  0.829910  0.650520  0.331390  Uiso  0.025330
    O1  O2-  1.0000  0.952860  0.746890  0.306840  Uiso  0.025330
    O1  O2-  1.0000  0.333200  0.018070  0.417310  Uiso  0.025330
    O1  O2-  1.0000  0.456150  0.114440  0.392760  Uiso  0.025330
    O1  O2-  1.0000  0.579100  0.210820  0.368210  Uiso  0.025330
    O1  O2-  1.0000  0.702050  0.307190  0.343670  Uiso  0.025330
    O1  O2-  1.0000  0.825000  0.403560  0.319120  Uiso  0.025330
    O1  O2-  1.0000  0.947950  0.499930  0.294570  Uiso  0.025330
    O1  O2-  1.0000  0.697130  0.060230  0.331390  Uiso  0.025330
    O1  O2-  1.0000  0.820080  0.156610  0.306840  Uiso  0.025330
    O1  O2-  1.0000  0.943030  0.252980  0.282300  Uiso  0.025330
    O1  O2-  1.0000  0.938110  0.006020  0.270020  Uiso  0.025330
    O1  O2-  1.0000  0.106970  0.813150  0.441860  Uiso  0.025330
    O1  O2-  1.0000  0.229920  0.909520  0.417310  Uiso  0.025330
    O1  O2-  1.0000  0.102050  0.566190  0.429580  Uiso  0.025330
    O1  O2-  1.0000  0.225000  0.662560  0.405030  Uiso  0.025330
    O1  O2-  1.0000  0.347950  0.758940  0.380490  Uiso  0.025330
    O1  O2-  1.0000  0.470900  0.855310  0.355940  Uiso  0.025330
    O1  O2-  1.0000  0.593850  0.951680  0.331390  Uiso  0.025330
    O1  O2-  1.0000  0.097130  0.319240  0.417310  Uiso  0.025330
    O1  O2-  1.0000  0.220080  0.415610  0.392760  Uiso  0.025330
    O1  O2-  1.0000  0.343030  0.511980  0.368210  Uiso  0.025330
    O1  O2-  1.0000  0.465980  0.608350  0.343670  Uiso  0.025330
    O1  O2-  1.0000  0.588930  0.704730  0.319120  Uiso  0.025330
    O1  O2-  1.0000  0.711880  0.801100  0.294570  Uiso  0.025330
    O1  O2-  1.0000  0.834830  0.897470  0.270020  Uiso  0.025330
    O1  O2-  1.0000  0.957780  0.993850  0.245480  Uiso  0.025330
    O1  O2-  1.0000  0.092210  0.072280  0.405030  Uiso  0.025330
    O1  O2-  1.0000  0.215160  0.168650  0.380490  Uiso  0.025330
    O1  O2-  1.0000  0.338110  0.265030  0.355940  Uiso  0.025330
    O1  O2-  1.0000  0.461060  0.361400  0.331390  Uiso  0.025330
    O1  O2-  1.0000  0.584010  0.457770  0.306840  Uiso  0.025330
    O1  O2-  1.0000  0.706960  0.554140  0.282300  Uiso  0.025330
    O1  O2-  1.0000  0.829910  0.650520  0.257750  Uiso  0.025330
    O1  O2-  1.0000  0.952860  0.746890  0.233200  Uiso  0.025330
    O1  O2-  1.0000  0.333200  0.018070  0.343670  Uiso  0.025330
    O1  O2-  1.0000  0.456150  0.114440  0.319120  Uiso  0.025330
    O1  O2-  1.0000  0.579100  0.210820  0.294570  Uiso  0.025330
    O1  O2-  1.0000  0.702050  0.307190  0.270020  Uiso  0.025330
    O1  O2-  1.0000  0.825000  0.403560  0.245480  Uiso  0.025330
    O1  O2-  1.0000  0.947950  0.499930  0.220930  Uiso  0.025330
    O1  O2-  1.0000  0.697130  0.060230  0.257750  Uiso  0.025330
    O1  O2-  1.0000  0.820080  0.156610  0.233200  Uiso  0.025330
    O1  O2-  1.0000  0.943030  0.252980  0.208650  Uiso  0.025330
    O1  O2-  1.0000  0.938110  0.006020  0.196380  Uiso  0.025330
    O1  O2-  1.0000  0.106970  0.813150  0.368210  Uiso  0.025330
    O1  O2-  1.0000  0.229920  0.909520  0.343670  Uiso  0.025330
    O1  O2-  1.0000  0.102050  0.566190  0.355940  Uiso  0.025330
    O1  O2-  1.0000  0.225000  0.662560  0.331390  Uiso  0.025330
    O1  O2-  1.0000  0.347950  0.758940  0.306840  Uiso  0.025330
    O1  O2-  1.0000  0.470900  0.855310  0.282300  Uiso  0.025330
    O1  O2-  1.0000  0.593850  0.951680  0.257750  Uiso  0.025330
    O1  O2-  1.0000  0.097130  0.319240  0.343670  Uiso  0.025330
    O1  O2-  1.0000  0.220080  0.415610  0.319120  Uiso  0.025330
    O1  O2-  1.0000  0.343030  0.511980  0.294570  Uiso  0.025330
    O1  O2-  1.0000  0.465980  0.608350  0.270020  Uiso  0.025330
    O1  O2-  1.0000  0.588930  0.704730  0.245480  Uiso  0.025330
    O1  O2-  1.0000  0.711880  0.801100  0.220930  Uiso  0.025330
    O1  O2-  1.0000  0.834830  0.897470  0.196380  Uiso  0.025330
    O1  O2-  1.0000  0.957780  0.993850  0.171830  Uiso  0.025330
    O1  O2-  1.0000  0.092210  0.072280  0.331390  Uiso  0.025330
    O1  O2-  1.0000  0.215160  0.168650  0.306840  Uiso  0.025330
    O1  O2-  1.0000  0.338110  0.265030  0.282300  Uiso  0.025330
    O1  O2-  1.0000  0.461060  0.361400  0.257750  Uiso  0.025330
    O1  O2-  1.0000  0.584010  0.457770  0.233200  Uiso  0.025330
    O1  O2-  1.0000  0.706960  0.554140  0.208650  Uiso  0.025330
    O1  O2-  1.0000  0.829910  0.650520  0.184110  Uiso  0.025330
    O1  O2-  1.0000  0.952860  0.746890  0.159560  Uiso  0.025330
    O1  O2-  1.0000  0.333200  0.018070  0.270020  Uiso  0.025330
    O1  O2-  1.0000  0.456150  0.114440  0.245480  Uiso  0.025330
    O1  O2-  1.0000  0.579100  0.210820  0.220930  Uiso  0.025330
    O1  O2-  1.0000  0.702050  0.307190  0.196380  Uiso  0.025330
    O1  O2-  1.0000  0.825000  0.403560  0.171830  Uiso  0.025330
    O1  O2-  1.0000  0.947950  0.499930  0.147290  Uiso  0.025330
    O1  O2-  1.0000  0.697130  0.060230  0.184110  Uiso  0.025330
    O1  O2-  1.0000  0.820080  0.156610  0.159560  Uiso  0.025330
    O1  O2-  1.0000  0.943030  0.252980  0.135010  Uiso  0.025330
    O1  O2-  1.0000  0.938110  0.006020  0.122740  Uiso  0.025330
    O1  O2-  1.0000  0.106970  0.813150  0.294570  Uiso  0.025330
    O1  O2-  1.0000  0.229920  0.909520  0.270020  Uiso  0.025330
    O1  O2-  1.0000  0.102050  0.566190  0.282300  Uiso  0.025330
    O1  O2-  1.0000  0.225000  0.662560  0.257750  Uiso  0.025330
    O1  O2-  1.0000  0.347950  0.758940  0.233200  Uiso  0.025330
    O1  O2-  1.0000  0.470900  0.855310  0.208650  Uiso  0.025330
    O1  O2-  1.0000  0.593850  0.951680  0.184110  Uiso  0.025330
    O1  O2-  1.0000  0.097130  0.319240  0.270020  Uiso  0.025330
    O1  O2-  1.0000  0.220080  0.415610  0.245480  Uiso  0.025330
    O1  O2-  1.0000  0.343030  0.511980  0.220930  Uiso  0.025330
    O1  O2-  1.0000  0.465980  0.608350  0.196380  Uiso  0.025330
    O1  O2-  1.0000  0.588930  0.704730  0.171830  Uiso  0.025330
    O1  O2-  1.0000  0.711880  0.801100  0.147290  Uiso  0.025330
    O1  O2-  1.0000  0.834830  0.897470  0.122740  Uiso  0.025330
    O1  O2-  1.0000  0.957780  0.993850  0.098190  Uiso  0.025330
    O1  O2-  1.0000  0.092210  0.072280  0.257750  Uiso  0.025330
    O1  O2-  1.0000  0.215160  0.168650  0.233200  Uiso  0.025330
    O1  O2-  1.0000  0.338110  0.265030  0.208650  Uiso  0.025330
    O1  O2-  1.0000  0.461060  0.361400  0.184110  Uiso  0.025330
    O1  O2-  1.0000  0.584010  0.457770  0.159560  Uiso  0.025330
    O1  O2-  1.0000  0.706960  0.554140  0.135010  Uiso  0.025330
    O1  O2-  1.0000  0.829910  0.650520  0.110460  Uiso  0.025330
    O1  O2-  1.0000  0.952860  0.746890  0.085920  Uiso  0.025330
    O1  O2-  1.0000  0.333200  0.018070  0.196380  Uiso  0.025330
    O1  O2-  1.0000  0.456150  0.114440  0.171830  Uiso  0.025330
    O1  O2-  1.0000  0.579100  0.210820  0.147290  Uiso  0.025330
    O1  O2-  1.0000  0.702050  0.307190  0.122740  Uiso  0.025330
    O1  O2-  1.0000  0.825000  0.403560  0.098190  Uiso  0.025330
    O1  O2-  1.0000  0.947950  0.499930  0.073640  Uiso  0.025330
    O1  O2-  1.0000  0.697130  0.060230  0.110460  Uiso  0.025330
    O1  O2-  1.0000  0.820080  0.156610  0.085920  Uiso  0.025330
    O1  O2-  1.0000  0.943030  0.252980  0.061370  Uiso  0.025330
    O1  O2-  1.0000  0.938110  0.006020  0.049100  Uiso  0.025330
    O1  O2-  1.0000  0.106970  0.813150  0.220930  Uiso  0.025330
    O1  O2-  1.0000  0.229920  0.909520  0.196380  Uiso  0.025330
    O1  O2-  1.0000  0.102050  0.566190  0.208650  Uiso  0.025330
    O1  O2-  1.0000  0.225000  0.662560  0.184110  Uiso  0.025330
    O1  O2-  1.0000  0.347950  0.758940  0.159560  Uiso  0.025330
    O1  O2-  1.0000  0.470900  0.855310  0.135010  Uiso  0.025330
    O1  O2-  1.0000  0.593850  0.951680  0.110460  Uiso  0.025330
    O1  O2-  1.0000  0.097130  0.319240  0.196380  Uiso  0.025330
    O1  O2-  1.0000  0.220080  0.415610  0.171830  Uiso  0.025330
    O1  O2-  1.0000  0.343030  0.511980  0.147290  Uiso  0.025330
    O1  O2-  1.0000  0.465980  0.608350  0.122740  Uiso  0.025330
    O1  O2-  1.0000  0.588930  0.704730  0.098190  Uiso  0.025330
    O1  O2-  1.0000  0.711880  0.801100  0.073640  Uiso  0.025330
    O1  O2-  1.0000  0.834830  0.897470  0.049100  Uiso  0.025330
    O1  O2-  1.0000  0.957780  0.993850  0.024550  Uiso  0.025330
    O1  O2-  1.0000  0.092210  0.072280  0.184110  Uiso  0.025330
    O1  O2-  1.0000  0.215160  0.168650  0.159560  Uiso  0.025330
    O1  O2-  1.0000  0.338110  0.265030  0.135010  Uiso  0.025330
    O1  O2-  1.0000  0.461060  0.361400  0.110460  Uiso  0.025330
    O1  O2-  1.0000  0.584010  0.457770  0.085920  Uiso  0.025330
    O1  O2-  1.0000  0.706960  0.554140  0.061370  Uiso  0.025330
    O1  O2-  1.0000  0.829910  0.650520  0.036820  Uiso  0.025330
    O1  O2-  1.0000  0.952860  0.746890  0.012270  Uiso  0.025330
    O1  O2-  1.0000  0.333200  0.018070  0.122740  Uiso  0.025330
    O1  O2-  1.0000  0.456150  0.114440  0.098190  Uiso  0.025330
    O1  O2-  1.0000  0.579100  0.210820  0.073640  Uiso  0.025330
    O1  O2-  1.0000  0.702050  0.307190  0.049100  Uiso  0.025330
    O1  O2-  1.0000  0.825000  0.403560  0.024550  Uiso  0.025330
    O1  O2-  1.0000  0.947950  0.499930  0.000000  Uiso  0.025330
    O1  O2-  1.0000  0.697130  0.060230  0.036820  Uiso  0.025330
    O1  O2-  1.0000  0.820080  0.156610  0.012270  Uiso  0.025330
    O1  O2-  1.0000  0.106970  0.813150  0.147290  Uiso  0.025330
    O1  O2-  1.0000  0.229920  0.909520  0.122740  Uiso  0.025330
    O1  O2-  1.0000  0.102050  0.566190  0.135010  Uiso  0.025330
    O1  O2-  1.0000  0.225000  0.662560  0.110460  Uiso  0.025330
    O1  O2-  1.0000  0.347950  0.758940  0.085920  Uiso  0.025330
    O1  O2-  1.0000  0.470900  0.855310  0.061370  Uiso  0.025330
    O1  O2-  1.0000  0.593850  0.951680  0.036820  Uiso  0.025330
    O1  O2-  1.0000  0.097130  0.319240  0.122740  Uiso  0.025330
    O1  O2-  1.0000  0.220080  0.415610  0.098190  Uiso  0.025330
    O1  O2-  1.0000  0.343030  0.511980  0.073640  Uiso  0.025330
    O1  O2-  1.0000  0.465980  0.608350  0.049100  Uiso  0.025330
    O1  O2-  1.0000  0.588930  0.704730  0.024550  Uiso  0.025330
    O1  O2-  1.0000  0.711880  0.801100  0.000000  Uiso  0.025330
    O1  O2-  1.0000  0.092210  0.072280  0.110460  Uiso  0.025330
    O1  O2-  1.0000  0.215160  0.168650  0.085920  Uiso  0.025330
    O1  O2-  1.0000  0.338110  0.265030  0.061370  Uiso  0.025330
    O1  O2-  1.0000  0.461060  0.361400  0.036820  Uiso  0.025330
    O1  O2-  1.0000  0.584010  0.457770  0.012270  Uiso  0.025330
    O1  O2-  1.0000  0.333200  0.018070  0.049100  Uiso  0.025330
    O1  O2-  1.0000  0.456150  0.114440  0.024550  Uiso  0.025330
    O1  O2-  1.0000  0.579100  0.210820  0.000000  Uiso  0.025330
    O1  O2-  1.0000  0.106970  0.813150  0.073640  Uiso  0.025330
    O1  O2-  1.0000  0.229920  0.909520  0.049100  Uiso  0.025330
    O1  O2-  1.0000  0.102050  0.566190  0.061370  Uiso  0.025330
    O1  O2-  1.0000  0.225000  0.662560  0.036820  Uiso  0.025330
    O1  O2-  1.0000  0.347950  0.758940  0.012270  Uiso  0.025330
    O1  O2-  1.0000  0.097130  0.319240  0.049100  Uiso  0.025330
    O1  O2-  1.0000  0.220080  0.415610  0.024550  Uiso  0.025330
    O1  O2-  1.0000  0.343030  0.511980  0.000000  Uiso  0.025330
    O1  O2-  1.0000  0.092210  0.072280  0.036820  Uiso  0.025330
    O1  O2-  1.0000  0.215160  0.168650  0.012270  Uiso  0.025330
    O1  O2-  1.0000  0.106970  0.813150  0.000000  Uiso  0.025330
    O1  O2-  1.0000  0.945490  0.376460  0.988040  Uiso  0.025330
    O1  O2-  1.0000  0.940570  0.129500  0.975760  Uiso  0.025330
    O1  O2-  1.0000  0.709420  0.677620  0.988040  Uiso  0.025330
    O1  O2-  1.0000  0.832370  0.774000  0.963490  Uiso  0.025330
    O1  O2-  1.0000  0.955320  0.870370  0.938940  Uiso  0.025330
    O1  O2-  1.0000  0.704510  0.430670  0.975760  Uiso  0.025330
    O1  O2-  1.0000  0.827460  0.527040  0.951220  Uiso  0.025330
    O1  O2-  1.0000  0.950410  0.623410  0.926670  Uiso  0.025330
    O1  O2-  1.0000  0.576640  0.087340  0.988040  Uiso  0.025330
    O1  O2-  1.0000  0.699590  0.183710  0.963490  Uiso  0.025330
    O1  O2-  1.0000  0.822540  0.280080  0.938940  Uiso  0.025330
    O1  O2-  1.0000  0.945490  0.376460  0.914400  Uiso  0.025330
    O1  O2-  1.0000  0.817620  0.033130  0.926670  Uiso  0.025330
    O1  O2-  1.0000  0.940570  0.129500  0.902120  Uiso  0.025330
    O1  O2-  1.0000  0.473360  0.978790  0.988040  Uiso  0.025330
    O1  O2-  1.0000  0.468440  0.731830  0.975760  Uiso  0.025330
    O1  O2-  1.0000  0.591390  0.828210  0.951220  Uiso  0.025330
    O1  O2-  1.0000  0.714340  0.924580  0.926670  Uiso  0.025330
    O1  O2-  1.0000  0.340570  0.388500  0.988040  Uiso  0.025330
    O1  O2-  1.0000  0.463520  0.484880  0.963490  Uiso  0.025330
    O1  O2-  1.0000  0.586470  0.581250  0.938940  Uiso  0.025330
    O1  O2-  1.0000  0.709420  0.677620  0.914400  Uiso  0.025330
    O1  O2-  1.0000  0.832370  0.774000  0.889850  Uiso  0.025330
    O1  O2-  1.0000  0.955320  0.870370  0.865300  Uiso  0.025330
    O1  O2-  1.0000  0.335650  0.141550  0.975760  Uiso  0.025330
    O1  O2-  1.0000  0.458600  0.237920  0.951220  Uiso  0.025330
    O1  O2-  1.0000  0.581550  0.334290  0.926670  Uiso  0.025330
    O1  O2-  1.0000  0.704510  0.430670  0.902120  Uiso  0.025330
    O1  O2-  1.0000  0.827460  0.527040  0.877570  Uiso  0.025330
    O1  O2-  1.0000  0.950410  0.623410  0.853030  Uiso  0.025330
    O1  O2-  1.0000  0.576640  0.087340  0.914400  Uiso  0.025330
    O1  O2-  1.0000  0.699590  0.183710  0.889850  Uiso  0.025330
    O1  O2-  1.0000  0.822540  0.280080  0.865300  Uiso  0.025330
    O1  O2-  1.0000  0.945490  0.376460  0.840750  Uiso  0.025330
    O1  O2-  1.0000  0.817620  0.033130  0.853030  Uiso  0.025330
    O1  O2-  1.0000  0.940570  0.129500  0.828480  Uiso  0.025330
    O1  O2-  1.0000  0.104510  0.689670  0.988040  Uiso  0.025330
    O1  O2-  1.0000  0.227460  0.786040  0.963490  Uiso  0.025330
    O1  O2-  1.0000  0.350410  0.882410  0.938940  Uiso  0.025330
    O1  O2-  1.0000  0.473360  0.978790  0.914400  Uiso  0.025330
    O1  O2-  1.0000  0.099590  0.442710  0.975760  Uiso  0.025330
    O1  O2-  1.0000  0.222540  0.539090  0.951220  Uiso  0.025330
    O1  O2-  1.0000  0.345490  0.635460  0.926670  Uiso  0.025330
    O1  O2-  1.0000  0.468440  0.731830  0.902120  Uiso  0.025330
    O1  O2-  1.0000  0.591390  0.828210  0.877570  Uiso  0.025330
    O1  O2-  1.0000  0.714340  0.924580  0.853030  Uiso  0.025330
    O1  O2-  1.0000  0.094670  0.195760  0.963490  Uiso  0.025330
    O1  O2-  1.0000  0.217620  0.292130  0.938940  Uiso  0.025330
    O1  O2-  1.0000  0.340570  0.388500  0.914400  Uiso  0.025330
    O1  O2-  1.0000  0.463520  0.484880  0.889850  Uiso  0.025330
    O1  O2-  1.0000  0.586470  0.581250  0.865300  Uiso  0.025330
    O1  O2-  1.0000  0.709420  0.677620  0.840750  Uiso  0.025330
    O1  O2-  1.0000  0.832370  0.774000  0.816200  Uiso  0.025330
    O1  O2-  1.0000  0.955320  0.870370  0.791660  Uiso  0.025330
    O1  O2-  1.0000  0.212700  0.045170  0.926670  Uiso  0.025330
    O1  O2-  1.0000  0.335650  0.141550  0.902120  Uiso  0.025330
    O1  O2-  1.0000  0.458600  0.237920  0.877570  Uiso  0.025330
    O1  O2-  1.0000  0.581550  0.334290  0.853030  Uiso  0.025330
    O1  O2-  1.0000  0.704510  0.430670  0.828480  Uiso  0.025330
    O1  O2-  1.0000  0.827460  0.527040  0.803930  Uiso  0.025330
    O1  O2-  1.0000  0.950410  0.623410  0.779380  Uiso  0.025330
    O1  O2-  1.0000  0.576640  0.087340  0.840750  Uiso  0.025330
    O1  O2-  1.0000  0.699590  0.183710  0.816200  Uiso  0.025330
    O1  O2-  1.0000  0.822540  0.280080  0.791660  Uiso  0.025330
    O1  O2-  1.0000  0.945490  0.376460  0.767110  Uiso  0.025330
    O1  O2-  1.0000  0.817620  0.033130  0.779380  Uiso  0.025330
    O1  O2-  1.0000  0.940570  0.129500  0.754840  Uiso  0.025330
    O1  O2-  1.0000  0.109430  0.936620  0.926670  Uiso  0.025330
    O1  O2-  1.0000  0.104510  0.689670  0.914400  Uiso  0.025330
    O1  O2-  1.0000  0.227460  0.786040  0.889850  Uiso  0.025330
    O1  O2-  1.0000  0.350410  0.882410  0.865300  Uiso  0.025330
    O1  O2-  1.0000  0.473360  0.978790  0.840750  Uiso  0.025330
    O1  O2-  1.0000  0.099590  0.442710  0.902120  Uiso  0.025330
    O1  O2-  1.0000  0.222540  0.539090  0.877570  Uiso  0.025330
    O1  O2-  1.0000  0.345490  0.635460  0.853030  Uiso  0.025330
    O1  O2-  1.0000  0.468440  0.731830  0.828480  Uiso  0.025330
    O1  O2-  1.0000  0.591390  0.828210  0.803930  Uiso  0.025330
    O1  O2-  1.0000  0.714340  0.924580  0.779380  Uiso  0.025330
    O1  O2-  1.0000  0.094670  0.195760  0.889850  Uiso  0.025330
    O1  O2-  1.0000  0.217620  0.292130  0.865300  Uiso  0.025330
    O1  O2-  1.0000  0.340570  0.388500  0.840750  Uiso  0.025330
    O1  O2-  1.0000  0.463520  0.484880  0.816200  Uiso  0.025330
    O1  O2-  1.0000  0.586470  0.581250  0.791660  Uiso  0.025330
    O1  O2-  1.0000  0.709420  0.677620  0.767110  Uiso  0.025330
    O1  O2-  1.0000  0.832370  0.774000  0.742560  Uiso  0.025330
    O1  O2-  1.0000  0.955320  0.870370  0.718010  Uiso  0.025330
    O1  O2-  1.0000  0.212700  0.045170  0.853030  Uiso  0.025330
    O1  O2-  1.0000  0.335650  0.141550  0.828480  Uiso  0.025330
    O1  O2-  1.0000  0.458600  0.237920  0.803930  Uiso  0.025330
    O1  O2-  1.0000  0.581550  0.334290  0.779380  Uiso  0.025330
    O1  O2-  1.0000  0.704510  0.430670  0.754840  Uiso  0.025330
    O1  O2-  1.0000  0.827460  0.527040  0.730290  Uiso  0.025330
    O1  O2-  1.0000  0.950410  0.623410  0.705740  Uiso  0.025330
    O1  O2-  1.0000  0.576640  0.087340  0.767110  Uiso  0.025330
    O1  O2-  1.0000  0.699590  0.183710  0.742560  Uiso  0.025330
    O1  O2-  1.0000  0.822540  0.280080  0.718010  Uiso  0.025330
    O1  O2-  1.0000  0.945490  0.376460  0.693470  Uiso  0.025330
    O1  O2-  1.0000  0.817620  0.033130  0.705740  Uiso  0.025330
    O1  O2-  1.0000  0.940570  0.129500  0.681190  Uiso  0.025330
    O1  O2-  1.0000  0.109430  0.936620  0.853030  Uiso  0.025330
    O1  O2-  1.0000  0.104510  0.689670  0.840750  Uiso  0.025330
    O1  O2-  1.0000  0.227460  0.786040  0.816200  Uiso  0.025330
    O1  O2-  1.0000  0.350410  0.882410  0.791660  Uiso  0.025330
    O1  O2-  1.0000  0.473360  0.978790  0.767110  Uiso  0.025330
    O1  O2-  1.0000  0.099590  0.442710  0.828480  Uiso  0.025330
    O1  O2-  1.0000  0.222540  0.539090  0.803930  Uiso  0.025330
    O1  O2-  1.0000  0.345490  0.635460  0.779380  Uiso  0.025330
    O1  O2-  1.0000  0.468440  0.731830  0.754840  Uiso  0.025330
    O1  O2-  1.0000  0.591390  0.828210  0.730290  Uiso  0.025330
    O1  O2-  1.0000  0.714340  0.924580  0.705740  Uiso  0.025330
    O1  O2-  1.0000  0.094670  0.195760  0.816200  Uiso  0.025330
    O1  O2-  1.0000  0.217620  0.292130  0.791660  Uiso  0.025330
    O1  O2-  1.0000  0.340570  0.388500  0.767110  Uiso  0.025330
    O1  O2-  1.0000  0.463520  0.484880  0.742560  Uiso  0.025330
    O1  O2-  1.0000  0.586470  0.581250  0.718010  Uiso  0.025330
    O1  O2-  1.0000  0.709420  0.677620  0.693470  Uiso  0.025330
    O1  O2-  1.0000  0.832370  0.774000  0.668920  Uiso  0.025330
    O1  O2-  1.0000  0.955320  0.870370  0.644370  Uiso  0.025330
    O1  O2-  1.0000  0.212700  0.045170  0.779380  Uiso  0.025330
    O1  O2-  1.0000  0.335650  0.141550  0.754840  Uiso  0.025330
    O1  O2-  1.0000  0.458600  0.237920  0.730290  Uiso  0.025330
    O1  O2-  1.0000  0.581550  0.334290  0.705740  Uiso  0.025330
    O1  O2-  1.0000  0.704510  0.430670  0.681190  Uiso  0.025330
    O1  O2-  1.0000  0.827460  0.527040  0.656650  Uiso  0.025330
    O1  O2-  1.0000  0.950410  0.623410  0.632100  Uiso  0.025330
    O1  O2-  1.0000  0.576640  0.087340  0.693470  Uiso  0.025330
    O1  O2-  1.0000  0.699590  0.183710  0.668920  Uiso  0.025330
    O1  O2-  1.0000  0.822540  0.280080  0.644370  Uiso  0.025330
    O1  O2-  1.0000  0.945490  0.376460  0.619820  Uiso  0.025330
    O1  O2-  1.0000  0.817620  0.033130  0.632100  Uiso  0.025330
    O1  O2-  1.0000  0.940570  0.129500  0.607550  Uiso  0.025330
    O1  O2-  1.0000  0.109430  0.936620  0.779380  Uiso  0.025330
    O1  O2-  1.0000  0.104510  0.689670  0.767110  Uiso  0.025330
    O1  O2-  1.0000  0.227460  0.786040  0.742560  Uiso  0.025330
    O1  O2-  1.0000  0.350410  0.882410  0.718010  Uiso  0.025330
    O1  O2-  1.0000  0.473360  0.978790  0.693470  Uiso  0.025330
    O1  O2-  1.0000  0.099590  0.442710  0.754840  Uiso  0.025330
    O1  O2-  1.0000  0.222540  0.539090  0.730290  Uiso  0.025330
    O1  O2-  1.0000  0.345490  0.635460  0.705740  Uiso  0.025330
    O1  O2-  1.0000  0.468440  0.731830  0.681190  Uiso  0.025330
    O1  O2-  1.0000  0.591390  0.828210  0.656650  Uiso  0.025330
    O1  O2-  1.0000  0.714340  0.924580  0.632100  Uiso  0.025330
    O1  O2-  1.0000  0.094670  0.195760  0.742560  Uiso  0.025330
    O1  O2-  1.0000  0.217620  0.292130  0.718010  Uiso  0.025330
    O1  O2-  1.0000  0.340570  0.388500  0.693470  Uiso  0.025330
    O1  O2-  1.0000  0.463520  0.484880  0.668920  Uiso  0.025330
    O1  O2-  1.0000  0.586470  0.581250  0.644370  Uiso  0.025330
    O1  O2-  1.0000  0.709420  0.677620  0.619820  Uiso  0.025330
    O1  O2-  1.0000  0.832370  0.774000  0.595280  Uiso  0.025330
    O1  O2-  1.0000  0.955320  0.870370  0.570730  Uiso  0.025330
    O1  O2-  1.0000  0.212700  0.045170  0.705740  Uiso  0.025330
    O1  O2-  1.0000  0.335650  0.141550  0.681190  Uiso  0.025330
    O1  O2-  1.0000  0.458600  0.237920  0.656650  Uiso  0.025330
    O1  O2-  1.0000  0.581550  0.334290  0.632100  Uiso  0.025330
    O1  O2-  1.0000  0.704510  0.430670  0.607550  Uiso  0.025330
    O1  O2-  1.0000  0.827460  0.527040  0.583000  Uiso  0.025330
    O1  O2-  1.0000  0.950410  0.623410  0.558460  Uiso  0.025330
    O1  O2-  1.0000  0.576640  0.087340  0.619820  Uiso  0.025330
    O1  O2-  1.0000  0.699590  0.183710  0.595280  Uiso  0.025330
    O1  O2-  1.0000  0.822540  0.280080  0.570730  Uiso  0.025330
    O1  O2-  1.0000  0.945490  0.376460  0.546180  Uiso  0.025330
    O1  O2-  1.0000  0.817620  0.033130  0.558460  Uiso  0.025330
    O1  O2-  1.0000  0.940570  0.129500  0.533910  Uiso  0.025330
    O1  O2-  1.0000  0.109430  0.936620  0.705740  Uiso  0.025330
    O1  O2-  1.0000  0.104510  0.689670  0.693470  Uiso  0.025330
    O1  O2-  1.0000  0.227460  0.786040  0.668920  Uiso  0.025330
    O1  O2-  1.0000  0.350410  0.882410  0.644370  Uiso  0.025330
    O1  O2-  1.0000  0.473360  0.978790  0.619820  Uiso  0.025330
    O1  O2-  1.0000  0.099590  0.442710  0.681190  Uiso  0.025330
    O1  O2-  1.0000  0.222540  0.539090  0.656650  Uiso  0.025330
    O1  O2-  1.0000  0.345490  0.635460  0.632100  Uiso  0.025330
    O1  O2-  1.0000  0.468440  0.731830  0.607550  Uiso  0.025330
    O1  O2-  1.0000  0.591390  0.828210  0.583000  Uiso  0.025330
    O1  O2-  1.0000  0.714340  0.924580  0.558460  Uiso  0.025330
    O1  O2-  1.0000  0.094670  0.195760  0.668920  Uiso  0.025330
    O1  O2-  1.0000  0.217620  0.292130  0.644370  Uiso  0.025330
    O1  O2-  1.0000  0.340570  0.388500  0.619820  Uiso  0.025330
    O1  O2-  1.0000  0.463520  0.484880  0.595280  Uiso  0.025330
    O1  O2-  1.0000  0.586470  0.581250  0.570730  Uiso  0.025330
    O1  O2-  1.0000  0.709420  0.677620  0.546180  Uiso  0.025330
    O1  O2-  1.0000  0.832370  0.774000  0.521630  Uiso  0.025330
    O1  O2-  1.0000  0.955320  0.870370  0.497090  Uiso  0.025330
    O1  O2-  1.0000  0.212700  0.045170  0.632100  Uiso  0.025330
    O1  O2-  1.0000  0.335650  0.141550  0.607550  Uiso  0.025330
    O1  O2-  1.0000  0.458600  0.237920  0.583000  Uiso  0.025330
    O1  O2-  1.0000  0.581550  0.334290  0.558460  Uiso  0.025330
    O1  O2-  1.0000  0.704510  0.430670  0.533910  Uiso  0.025330
    O1  O2-  1.0000  0.827460  0.527040  0.509360  Uiso  0.025330
    O1  O2-  1.0000  0.950410  0.623410  0.484810  Uiso  0.025330
    O1  O2-  1.0000  0.576640  0.087340  0.546180  Uiso  0.025330
    O1  O2-  1.0000  0.699590  0.183710  0.521630  Uiso  0.025330
    O1  O2-  1.0000  0.822540  0.280080  0.497090  Uiso  0.025330
    O1  O2-  1.0000  0.945490  0.376460  0.472540  Uiso  0.025330
    O1  O2-  1.0000  0.817620  0.033130  0.484810  Uiso  0.025330
    O1  O2-  1.0000  0.940570  0.129500  0.460270  Uiso  0.025330
    O1  O2-  1.0000  0.109430  0.936620  0.632100  Uiso  0.025330
    O1  O2-  1.0000  0.104510  0.689670  0.619820  Uiso  0.025330
    O1  O2-  1.0000  0.227460  0.786040  0.595280  Uiso  0.025330
    O1  O2-  1.0000  0.350410  0.882410  0.570730  Uiso  0.025330
    O1  O2-  1.0000  0.473360  0.978790  0.546180  Uiso  0.025330
    O1  O2-  1.0000  0.099590  0.442710  0.607550  Uiso  0.025330
    O1  O2-  1.0000  0.222540  0.539090  0.583000  Uiso  0.025330
    O1  O2-  1.0000  0.345490  0.635460  0.558460  Uiso  0.025330
    O1  O2-  1.0000  0.468440  0.731830  0.533910  Uiso  0.025330
    O1  O2-  1.0000  0.591390  0.828210  0.509360  Uiso  0.025330
    O1  O2-  1.0000  0.714340  0.924580  0.484810  Uiso  0.025330
    O1  O2-  1.0000  0.094670  0.195760  0.595280  Uiso  0.025330
    O1  O2-  1.0000  0.217620  0.292130  0.570730  Uiso  0.025330
    O1  O2-  1.0000  0.340570  0.388500  0.546180  Uiso  0.025330
    O1  O2-  1.0000  0.463520  0.484880  0.521630  Uiso  0.025330
    O1  O2-  1.0000  0.586470  0.581250  0.497090  Uiso  0.025330
    O1  O2-  1.0000  0.709420  0.677620  0.472540  Uiso  0.025330
    O1  O2-  1.0000  0.832370  0.774000  0.447990  Uiso  0.025330
    O1  O2-  1.0000  0.955320  0.870370  0.423440  Uiso  0.025330
    O1  O2-  1.0000  0.212700  0.045170  0.558460  Uiso  0.025330
    O1  O2-  1.0000  0.335650  0.141550  0.533910  Uiso  0.025330
    O1  O2-  1.0000  0.458600  0.237920  0.509360  Uiso  0.025330
    O1  O2-  1.0000  0.581550  0.334290  0.484810  Uiso  0.025330
    O1  O2-  1.0000  0.704510  0.430670  0.460270  Uiso  0.025330
    O1  O2-  1.0000  0.827460  0.527040  0.435720  Uiso  0.025330
    O1  O2-  1.0000  0.950410  0.623410  0.411170  Uiso  0.025330
    O1  O2-  1.0000  0.576640  0.087340  0.472540  Uiso  0.025330
    O1  O2-  1.0000  0.699590  0.183710  0.447990  Uiso  0.025330
    O1  O2-  1.0000  0.822540  0.280080  0.423440  Uiso  0.025330
    O1  O2-  1.0000  0.945490  0.376460  0.398900  Uiso  0.025330
    O1  O2-  1.0000  0.817620  0.033130  0.411170  Uiso  0.025330
    O1  O2-  1.0000  0.940570  0.129500  0.386620  Uiso  0.025330
    O1  O2-  1.0000  0.109430  0.936620  0.558460  Uiso  0.025330
    O1  O2-  1.0000  0.104510  0.689670  0.546180  Uiso  0.025330
    O1  O2-  1.0000  0.227460  0.786040  0.521630  Uiso  0.025330
    O1  O2-  1.0000  0.350410  0.882410  0.497090  Uiso  0.025330
    O1  O2-  1.0000  0.473360  0.978790  0.472540  Uiso  0.025330
    O1  O2-  1.0000  0.099590  0.442710  0.533910  Uiso  0.025330
    O1  O2-  1.0000  0.222540  0.539090  0.509360  Uiso  0.025330
    O1  O2-  1.0000  0.345490  0.635460  0.484810  Uiso  0.025330
    O1  O2-  1.0000  0.468440  0.731830  0.460270  Uiso  0.025330
    O1  O2-  1.0000  0.591390  0.828210  0.435720  Uiso  0.025330
    O1  O2-  1.0000  0.714340  0.924580  0.411170  Uiso  0.025330
    O1  O2-  1.0000  0.094670  0.195760  0.521630  Uiso  0.025330
    O1  O2-  1.0000  0.217620  0.292130  0.497090  Uiso  0.025330
    O1  O2-  1.0000  0.340570  0.388500  0.472540  Uiso  0.025330
    O1  O2-  1.0000  0.463520  0.484880  0.447990  Uiso  0.025330
    O1  O2-  1.0000  0.586470  0.581250  0.423440  Uiso  0.025330
    O1  O2-  1.0000  0.709420  0.677620  0.398900  Uiso  0.025330
    O1  O2-  1.0000  0.832370  0.774000  0.374350  Uiso  0.025330
    O1  O2-  1.0000  0.955320  0.870370  0.349800  Uiso  0.025330
    O1  O2-  1.0000  0.212700  0.045170  0.484810  Uiso  0.025330
    O1  O2-  1.0000  0.335650  0.141550  0.460270  Uiso  0.025330
    O1  O2-  1.0000  0.458600  0.237920  0.435720  Uiso  0.025330
    O1  O2-  1.0000  0.581550  0.334290  0.411170  Uiso  0.025330
    O1  O2-  1.0000  0.704510  0.430670  0.386620  Uiso  0.025330
    O1  O2-  1.0000  0.827460  0.527040  0.362080  Uiso  0.025330
    O1  O2-  1.0000  0.950410  0.623410  0.337530  Uiso  0.025330
    O1  O2-  1.0000  0.576640  0.087340  0.398900  Uiso  0.025330
    O1  O2-  1.0000  0.699590  0.183710  0.374350  Uiso  0.025330
    O1  O2-  1.0000  0.822540  0.280080  0.349800  Uiso  0.025330
    O1  O2-  1.0000  0.945490  0.376460  0.325250  Uiso  0.025330
    O1  O2-  1.0000  0.817620  0.033130  0.337530  Uiso  0.025330
    O1  O2-  1.0000  0.940570  0.129500  0.312980  Uiso  0.025330
    O1  O2-  1.0000  0.109430  0.936620  0.484810  Uiso  0.025330
    O1  O2-  1.0000  0.104510  0.689670  0.472540  Uiso  0.025330
    O1  O2-  1.0000  0.227460  0.786040  0.447990  Uiso  0.025330
    O1  O2-  1.0000  0.350410  0.882410  0.423440  Uiso  0.025330
    O1  O2-  1.0000  0.473360  0.978790  0.398900  Uiso  0.025330
    O1  O2-  1.0000  0.099590  0.442710  0.460270  Uiso  0.025330
    O1  O2-  1.0000  0.222540  0.539090  0.435720  Uiso  0.025330
    O1  O2-  1.0000  0.345490  0.635460  0.411170  Uiso  0.025330
    O1  O2-  1.0000  0.468440  0.731830  0.386620  Uiso  0.025330
    O1  O2-  1.0000  0.591390  0.828210  0.362080  Uiso  0.025330
    O1  O2-  1.0000  0.714340  0.924580  0.337530  Uiso  0.025330
    O1  O2-  1.0000  0.094670  0.195760  0.447990  Uiso  0.025330
    O1  O2-  1.0000  0.217620  0.292130  0.423440  Uiso  0.025330
    O1  O2-  1.0000  0.340570  0.388500  0.398900  Uiso  0.025330
    O1  O2-  1.0000  0.463520  0.484880  0.374350  Uiso  0.025330
    O1  O2-  1.0000  0.586470  0.581250  0.349800  Uiso  0.025330
    O1  O2-  1.0000  0.709420  0.677620  0.325250  Uiso  0.025330
    O1  O2-  1.0000  0.832370  0.774000  0.300710  Uiso  0.025330
    O1  O2-  1.0000  0.955320  0.870370  0.276160  Uiso  0.025330
    O1  O2-  1.0000  0.212700  0.045170  0.411170  Uiso  0.025330
    O1  O2-  1.0000  0.335650  0.141550  0.386620  Uiso  0.025330
    O1  O2-  1.0000  0.458600  0.237920  0.362080  Uiso  0.025330
    O1  O2-  1.0000  0.581550  0.334290  0.337530  Uiso  0.025330
    O1  O2-  1.0000  0.704510  0.430670  0.312980  Uiso  0.025330
    O1  O2-  1.0000  0.827460  0.527040  0.288430  Uiso  0.025330
    O1  O2-  1.0000  0.950410  0.623410  0.263890  Uiso  0.025330
    O1  O2-  1.0000  0.576640  0.087340  0.325250  Uiso  0.025330
    O1  O2-  1.0000  0.699590  0.183710  0.300710  Uiso  0.025330
    O1  O2-  1.0000  0.822540  0.280080  0.276160  Uiso  0.025330
    O1  O2-  1.0000  0.945490  0.376460  0.251610  Uiso  0.025330
    O1  O2-  1.0000  0.817620  0.033130  0.263890  Uiso  0.025330
    O1  O2-  1.0000  0.940570  0.129500  0.239340  Uiso  0.025330
    O1  O2-  1.0000  0.109430  0.936620  0.411170  Uiso  0.025330
    O1  O2-  1.0000  0.104510  0.689670  0.398900  Uiso  0.025330
    O1  O2-  1.0000  0.227460  0.786040  0.374350  Uiso  0.025330
    O1  O2-  1.0000  0.350410  0.882410  0.349800  Uiso  0.025330
    O1  O2-  1.0000  0.473360  0.978790  0.325250  Uiso  0.025330
    O1  O2-  1.0000  0.099590  0.442710  0.386620  Uiso  0.025330
    O1  O2-  1.0000  0.222540  0.539090  0.362080  Uiso  0.025330
    O1  O2-  1.0000  0.345490  0.635460  0.337530  Uiso  0.025330
    O1  O2-  1.0000  0.468440  0.731830  0.312980  Uiso  0.025330
    O1  O2-  1.0000  0.591390  0.828210  0.288430  Uiso  0.025330
    O1  O2-  1.0000  0.714340  0.924580  0.263890  Uiso  0.025330
    O1  O2-  1.0000  0.094670  0.195760  0.374350  Uiso  0.025330
    O1  O2-  1.0000  0.217620  0.292130  0.349800  Uiso  0.025330
    O1  O2-  1.0000  0.340570  0.388500  0.325250  Uiso  0.025330
    O1  O2-  1.0000  0.463520  0.484880  0.300710  Uiso  0.025330
    O1  O2-  1.0000  0.586470  0.581250  0.276160  Uiso  0.025330
    O1  O2-  1.0000  0.709420  0.677620  0.251610  Uiso  0.025330
    O1  O2-  1.0000  0.832370  0.774000  0.227060  Uiso  0.025330
    O1  O2-  1.0000  0.955320  0.870370  0.202520  Uiso  0.025330
    O1  O2-  1.0000  0.212700  0.045170  0.337530  Uiso  0.025330
    O1  O2-  1.0000  0.335650  0.141550  0.312980  Uiso  0.025330
    O1  O2-  1.0000  0.458600  0.237920  0.288430  Uiso  0.025330
    O1  O2-  1.0000  0.581550  0.334290  0.263890  Uiso  0.025330
    O1  O2-  1.0000  0.704510  0.430670  0.239340  Uiso  0.025330
    O1  O2-  1.0000  0.827460  0.527040  0.214790  Uiso  0.025330
    O1  O2-  1.0000  0.950410  0.623410  0.190240  Uiso  0.025330
    O1  O2-  1.0000  0.576640  0.087340  0.251610  Uiso  0.025330
    O1  O2-  1.0000  0.699590  0.183710  0.227060  Uiso  0.025330
    O1  O2-  1.0000  0.822540  0.280080  0.202520  Uiso  0.025330
    O1  O2-  1.0000  0.945490  0.376460  0.177970  Uiso  0.025330
    O1  O2-  1.0000  0.817620  0.033130  0.190240  Uiso  0.025330
    O1  O2-  1.0000  0.940570  0.129500  0.165700  Uiso  0.025330
    O1  O2-  1.0000  0.109430  0.936620  0.337530  Uiso  0.025330
    O1  O2-  1.0000  0.104510  0.689670  0.325250  Uiso  0.025330
    O1  O2-  1.0000  0.227460  0.786040  0.300710  Uiso  0.025330
    O1  O2-  1.0000  0.350410  0.882410  0.276160  Uiso  0.025330
    O1  O2-  1.0000  0.473360  0.978790  0.251610  Uiso  0.025330
    O1  O2-  1.0000  0.099590  0.442710  0.312980  Uiso  0.025330
    O1  O2-  1.0000  0.222540  0.539090  0.288430  Uiso  0.025330
    O1  O2-  1.0000  0.345490  0.635460  0.263890  Uiso  0.025330
    O1  O2-  1.0000  0.468440  0.731830  0.239340  Uiso  0.025330
    O1  O2-  1.0000  0.591390  0.828210  0.214790  Uiso  0.025330
    O1  O2-  1.0000  0.714340  0.924580  0.190240  Uiso  0.025330
    O1  O2-  1.0000  0.094670  0.195760  0.300710  Uiso  0.025330
    O1  O2-  1.0000  0.217620  0.292130  0.276160  Uiso  0.025330
    O1  O2-  1.0000  0.340570  0.388500  0.251610  Uiso  0.025330
    O1  O2-  1.0000  0.463520  0.484880  0.227060  Uiso  0.025330
    O1  O2-  1.0000  0.586470  0.581250  0.202520  Uiso  0.025330
    O1  O2-  1.0000  0.709420  0.677620  0.177970  Uiso  0.025330
    O1  O2-  1.0000  0.832370  0.774000  0.153420  Uiso  0.025330
    O1  O2-  1.0000  0.955320  0.870370  0.128870  Uiso  0.025330
    O1  O2-  1.0000  0.212700  0.045170  0.263890  Uiso  0.025330
    O1  O2-  1.0000  0.335650  0.141550  0.239340  Uiso  0.025330
    O1  O2-  1.0000  0.458600  0.237920  0.214790  Uiso  0.025330
    O1  O2-  1.0000  0.581550  0.334290  0.190240  Uiso  0.025330
    O1  O2-  1.0000  0.704510  0.430670  0.165700  Uiso  0.025330
    O1  O2-  1.0000  0.827460  0.527040  0.141150  Uiso  0.025330
    O1  O2-  1.0000  0.950410  0.623410  0.116600  Uiso  0.025330
    O1  O2-  1.0000  0.576640  0.087340  0.177970  Uiso  0.025330
    O1  O2-  1.0000  0.699590  0.183710  0.153420  Uiso  0.025330
    O1  O2-  1.0000  0.822540  0.280080  0.128870  Uiso  0.025330
    O1  O2-  1.0000  0.945490  0.376460  0.104330  Uiso  0.025330
    O1  O2-  1.0000  0.817620  0.033130  0.116600  Uiso  0.025330
    O1  O2-  1.0000  0.940570  0.129500  0.092050  Uiso  0.025330
    O1  O2-  1.0000  0.109430  0.936620  0.263890  Uiso  0.025330
    O1  O2-  1.0000  0.104510  0.689670  0.251610  Uiso  0.025330
    O1  O2-  1.0000  0.227460  0.786040  0.227060  Uiso  0.025330
    O1  O2-  1.0000  0.350410  0.882410  0.202520  Uiso  0.025330
    O1  O2-  1.0000  0.473360  0.978790  0.177970  Uiso  0.025330
    O1  O2-  1.0000  0.099590  0.442710  0.239340  Uiso  0.025330
    O1  O2-  1.0000  0.222540  0.539090  0.214790  Uiso  0.025330
    O1  O2-  1.0000  0.345490  0.635460  0.190240  Uiso  0.025330
    O1  O2-  1.0000  0.468440  0.731830  0.165700  Uiso  0.025330
    O1  O2-  1.0000  0.591390  0.828210  0.141150  Uiso  0.025330
    O1  O2-  1.0000  0.714340  0.924580  0.116600  Uiso  0.025330
    O1  O2-  1.0000  0.094670  0.195760  0.227060  Uiso  0.025330
    O1  O2-  1.0000  0.217620  0.292130  0.202520  Uiso  0.025330
    O1  O2-  1.0000  0.340570  0.388500  0.177970  Uiso  0.025330
    O1  O2-  1.0000  0.463520  0.484880  0.153420  Uiso  0.025330
    O1  O2-  1.0000  0.586470  0.581250  0.128870  Uiso  0.025330
    O1  O2-  1.0000  0.709420  0.677620  0.104330  Uiso  0.025330
    O1  O2-  1.0000  0.832370  0.774000  0.079780  Uiso  0.025330
    O1  O2-  1.0000  0.955320  0.870370  0.055230  Uiso  0.025330
    O1  O2-  1.0000  0.212700  0.045170  0.190240  Uiso  0.025330
    O1  O2-  1.0000  0.335650  0.141550  0.165700  Uiso  0.025330
    O1  O2-  1.0000  0.458600  0.237920  0.141150  Uiso  0.025330
    O1  O2-  1.0000  0.581550  0.334290  0.116600  Uiso  0.025330
    O1  O2-  1.0000  0.704510  0.430670  0.092050  Uiso  0.025330
    O1  O2-  1.0000  0.827460  0.527040  0.067510  Uiso  0.025330
    O1  O2-  1.0000  0.950410  0.623410  0.042960  Uiso  0.025330
    O1  O2-  1.0000  0.576640  0.087340  0.104330  Uiso  0.025330
    O1  O2-  1.0000  0.699590  0.183710  0.079780  Uiso  0.025330
    O1  O2-  1.0000  0.822540  0.280080  0.055230  Uiso  0.025330
    O1  O2-  1.0000  0.945490  0.376460  0.030680  Uiso  0.025330
    O1  O2-  1.0000  0.817620  0.033130  0.042960  Uiso  0.025330
    O1  O2-  1.0000  0.940570  0.129500  0.018410  Uiso  0.025330
    O1  O2-  1.0000  0.109430  0.936620  0.190240  Uiso  0.025330
    O1  O2-  1.0000  0.104510  0.689670  0.177970  Uiso  0.025330
    O1  O2-  1.0000  0.227460  0.786040  0.153420  Uiso  0.025330
    O1  O2-  1.0000  0.350410  0.882410  0.128870  Uiso  0.025330
    O1  O2-  1.0000  0.473360  0.978790  0.104330  Uiso  0.025330
    O1  O2-  1.0000  0.099590  0.442710  0.165700  Uiso  0.025330
    O1  O2-  1.0000  0.222540  0.539090  0.141150  Uiso  0.025330
    O1  O2-  1.0000  0.345490  0.635460  0.116600  Uiso  0.025330
    O1  O2-  1.0000  0.468440  0.731830  0.092050  Uiso  0.025330
    O1  O2-  1.0000  0.591390  0.828210  0.067510  Uiso  0.025330
    O1  O2-  1.0000  0.714340  0.924580  0.042960  Uiso  0.025330
    O1  O2-  1.0000  0.094670  0.195760  0.153420  Uiso  0.025330
    O1  O2-  1.0000  0.217620  0.292130  0.128870  Uiso  0.025330
    O1  O2-  1.0000  0.340570  0.388500  0.104330  Uiso  0.025330
    O1  O2-  1.0000  0.463520  0.484880  0.079780  Uiso  0.025330
    O1  O2-  1.0000  0.586470  0.581250  0.055230  Uiso  0.025330
    O1  O2-  1.0000  0.709420  0.677620  0.030680  Uiso  0.025330
    O1  O2-  1.0000  0.832370  0.774000  0.006140  Uiso  0.025330
    O1  O2-  1.0000  0.212700  0.045170  0.116600  Uiso  0.025330
    O1  O2-  1.0000  0.335650  0.141550  0.092050  Uiso  0.025330
    O1  O2-  1.0000  0.458600  0.237920  0.067510  Uiso  0.025330
    O1  O2-  1.0000  0.581550  0.334290  0.042960  Uiso  0.025330
    O1  O2-  1.0000  0.704510  0.430670  0.018410  Uiso  0.025330
    O1  O2-  1.0000  0.576640  0.087340  0.030680  Uiso  0.025330
    O1  O2-  1.0000  0.699590  0.183710  0.006140  Uiso  0.025330
    O1  O2-  1.0000  0.109430  0.936620  0.116600  Uiso  0.025330
    O1  O2-  1.0000  0.104510  0.689670  0.104330  Uiso  0.025330
    O1  O2-  1.0000  0.227460  0.786040  0.079780  Uiso  0.025330
    O1  O2-  1.0000  0.350410  0.882410  0.055230  Uiso  0.025330
    O1  O2-  1.0000  0.473360  0.978790  0.030680  Uiso  0.025330
    O1  O2-  1.0000  0.099590  0.442710  0.092050  Uiso  0.025330
    O1  O2-  1.0000  0.222540  0.539090  0.067510  Uiso  0.025330
    O1  O2-  1.0000  0.345490  0.635460  0.042960  Uiso  0.025330
    O1  O2-  1.0000  0.468440  0.731830  0.018410  Uiso  0.025330
    O1  O2-  1.0000  0.094670  0.195760  0.079780  Uiso  0.025330
    O1  O2-  1.0000  0.217620  0.292130  0.055230  Uiso  0.025330
    O1  O2-  1.0000  0.340570  0.388500  0.030680  Uiso  0.025330
    O1  O2-  1.0000  0.463520  0.484880  0.006140  Uiso  0.025330
    O1  O2-  1.0000  0.212700  0.045170  0.042960  Uiso  0.025330
    O1  O2-  1.0000  0.335650  0.141550  0.018410  Uiso  0.025330
    O1  O2-  1.0000  0.109430  0.936620  0.042960  Uiso  0.025330
    O1  O2-  1.0000  0.104510  0.689670  0.030680  Uiso  0.025330
    O1  O2-  1.0000  0.227460  0.786040  0.006140  Uiso  0.025330
    O1  O2-  1.0000  0.099590  0.442710  0.018410  Uiso  0.025330
    O1  O2-  1.0000  0.094670  0.195760  0.006140  Uiso  0.025330
    O1  O2-  1.0000  0.947950  0.499930  0.994170  Uiso  0.025330
    O1  O2-  1.0000  0.943030  0.252980  0.981900  Uiso  0.025330
    O1  O2-  1.0000  0.938110  0.006020  0.969630  Uiso  0.025330
    O1  O2-  1.0000  0.711880  0.801100  0.994170  Uiso  0.025330
    O1  O2-  1.0000  0.834830  0.897470  0.969630  Uiso  0.025330
    O1  O2-  1.0000  0.957780  0.993850  0.945080  Uiso  0.025330
    O1  O2-  1.0000  0.706960  0.554140  0.981900  Uiso  0.025330
    O1  O2-  1.0000  0.829910  0.650520  0.957350  Uiso  0.025330
    O1  O2-  1.0000  0.952860  0.746890  0.932810  Uiso  0.025330
    O1  O2-  1.0000  0.579100  0.210820  0.994170  Uiso  0.025330
    O1  O2-  1.0000  0.702050  0.307190  0.969630  Uiso  0.025330
    O1  O2-  1.0000  0.825000  0.403560  0.945080  Uiso  0.025330
    O1  O2-  1.0000  0.947950  0.499930  0.920530  Uiso  0.025330
    O1  O2-  1.0000  0.697130  0.060230  0.957350  Uiso  0.025330
    O1  O2-  1.0000  0.820080  0.156610  0.932810  Uiso  0.025330
    O1  O2-  1.0000  0.943030  0.252980  0.908260  Uiso  0.025330
    O1  O2-  1.0000  0.938110  0.006020  0.895980  Uiso  0.025330
    O1  O2-  1.0000  0.470900  0.855310  0.981900  Uiso  0.025330
    O1  O2-  1.0000  0.593850  0.951680  0.957350  Uiso  0.025330
    O1  O2-  1.0000  0.343030  0.511980  0.994170  Uiso  0.025330
    O1  O2-  1.0000  0.465980  0.608350  0.969630  Uiso  0.025330
    O1  O2-  1.0000  0.588930  0.704730  0.945080  Uiso  0.025330
    O1  O2-  1.0000  0.711880  0.801100  0.920530  Uiso  0.025330
    O1  O2-  1.0000  0.834830  0.897470  0.895980  Uiso  0.025330
    O1  O2-  1.0000  0.957780  0.993850  0.871440  Uiso  0.025330
    O1  O2-  1.0000  0.338110  0.265030  0.981900  Uiso  0.025330
    O1  O2-  1.0000  0.461060  0.361400  0.957350  Uiso  0.025330
    O1  O2-  1.0000  0.584010  0.457770  0.932810  Uiso  0.025330
    O1  O2-  1.0000  0.706960  0.554140  0.908260  Uiso  0.025330
    O1  O2-  1.0000  0.829910  0.650520  0.883710  Uiso  0.025330
    O1  O2-  1.0000  0.952860  0.746890  0.859160  Uiso  0.025330
    O1  O2-  1.0000  0.333200  0.018070  0.969630  Uiso  0.025330
    O1  O2-  1.0000  0.456150  0.114440  0.945080  Uiso  0.025330
    O1  O2-  1.0000  0.579100  0.210820  0.920530  Uiso  0.025330
    O1  O2-  1.0000  0.702050  0.307190  0.895980  Uiso  0.025330
    O1  O2-  1.0000  0.825000  0.403560  0.871440  Uiso  0.025330
    O1  O2-  1.0000  0.947950  0.499930  0.846890  Uiso  0.025330
    O1  O2-  1.0000  0.697130  0.060230  0.883710  Uiso  0.025330
    O1  O2-  1.0000  0.820080  0.156610  0.859160  Uiso  0.025330
    O1  O2-  1.0000  0.943030  0.252980  0.834620  Uiso  0.025330
    O1  O2-  1.0000  0.938110  0.006020  0.822340  Uiso  0.025330
    O1  O2-  1.0000  0.106970  0.813150  0.994170  Uiso  0.025330
    O1  O2-  1.0000  0.229920  0.909520  0.969630  Uiso  0.025330
    O1  O2-  1.0000  0.102050  0.566190  0.981900  Uiso  0.025330
    O1  O2-  1.0000  0.225000  0.662560  0.957350  Uiso  0.025330
    O1  O2-  1.0000  0.347950  0.758940  0.932810  Uiso  0.025330
    O1  O2-  1.0000  0.470900  0.855310  0.908260  Uiso  0.025330
    O1  O2-  1.0000  0.593850  0.951680  0.883710  Uiso  0.025330
    O1  O2-  1.0000  0.097130  0.319240  0.969630  Uiso  0.025330
    O1  O2-  1.0000  0.220080  0.415610  0.945080  Uiso  0.025330
    O1  O2-  1.0000  0.343030  0.511980  0.920530  Uiso  0.025330
    O1  O2-  1.0000  0.465980  0.608350  0.895980  Uiso  0.025330
    O1  O2-  1.0000  0.588930  0.704730  0.871440  Uiso  0.025330
    O1  O2-  1.0000  0.711880  0.801100  0.846890  Uiso  0.025330
    O1  O2-  1.0000  0.834830  0.897470  0.822340  Uiso  0.025330
    O1  O2-  1.0000  0.957780  0.993850  0.797790  Uiso  0.025330
    O1  O2-  1.0000  0.092210  0.072280  0.957350  Uiso  0.025330
    O1  O2-  1.0000  0.215160  0.168650  0.932810  Uiso  0.025330
    O1  O2-  1.0000  0.338110  0.265030  0.908260  Uiso  0.025330
    O1  O2-  1.0000  0.461060  0.361400  0.883710  Uiso  0.025330
    O1  O2-  1.0000  0.584010  0.457770  0.859160  Uiso  0.025330
    O1  O2-  1.0000  0.706960  0.554140  0.834620  Uiso  0.025330
    O1  O2-  1.0000  0.829910  0.650520  0.810070  Uiso  0.025330
    O1  O2-  1.0000  0.952860  0.746890  0.785520  Uiso  0.025330
    O1  O2-  1.0000  0.333200  0.018070  0.895980  Uiso  0.025330
    O1  O2-  1.0000  0.456150  0.114440  0.871440  Uiso  0.025330
    O1  O2-  1.0000  0.579100  0.210820  0.846890  Uiso  0.025330
    O1  O2-  1.0000  0.702050  0.307190  0.822340  Uiso  0.025330
    O1  O2-  1.0000  0.825000  0.403560  0.797790  Uiso  0.025330
    O1  O2-  1.0000  0.947950  0.499930  0.773250  Uiso  0.025330
    O1  O2-  1.0000  0.697130  0.060230  0.810070  Uiso  0.025330
    O1  O2-  1.0000  0.820080  0.156610  0.785520  Uiso  0.025330
    O1  O2-  1.0000  0.943030  0.252980  0.760970  Uiso  0.025330
    O1  O2-  1.0000  0.938110  0.006020  0.748700  Uiso  0.025330
    O1  O2-  1.0000  0.106970  0.813150  0.920530  Uiso  0.025330
    O1  O2-  1.0000  0.229920  0.909520  0.895980  Uiso  0.025330
    O1  O2-  1.0000  0.102050  0.566190  0.908260  Uiso  0.025330
    O1  O2-  1.0000  0.225000  0.662560  0.883710  Uiso  0.025330
    O1  O2-  1.0000  0.347950  0.758940  0.859160  Uiso  0.025330
    O1  O2-  1.0000  0.470900  0.855310  0.834620  Uiso  0.025330
    O1  O2-  1.0000  0.593850  0.951680  0.810070  Uiso  0.025330
    O1  O2-  1.0000  0.097130  0.319240  0.895980  Uiso  0.025330
    O1  O2-  1.0000  0.220080  0.415610  0.871440  Uiso  0.025330
    O1  O2-  1.0000  0.343030  0.511980  0.846890  Uiso  0.025330
    O1  O2-  1.0000  0.465980  0.608350  0.822340  Uiso  0.025330
    O1  O2-  1.0000  0.588930  0.704730  0.797790  Uiso  0.025330
    O1  O2-  1.0000  0.711880  0.801100  0.773250  Uiso  0.025330
    O1  O2-  1.0000  0.834830  0.897470  0.748700  Uiso  0.025330
    O1  O2-  1.0000  0.957780  0.993850  0.724150  Uiso  0.025330
    O1  O2-  1.0000  0.092210  0.072280  0.883710  Uiso  0.025330
    O1  O2-  1.0000  0.215160  0.168650  0.859160  Uiso  0.025330
    O1  O2-  1.0000  0.338110  0.265030  0.834620  Uiso  0.025330
    O1  O2-  1.0000  0.461060  0.361400  0.810070  Uiso  0.025330
    O1  O2-  1.0000  0.584010  0.457770  0.785520  Uiso  0.025330
    O1  O2-  1.0000  0.706960  0.554140  0.760970  Uiso  0.025330
    O1  O2-  1.0000  0.829910  0.650520  0.736430  Uiso  0.025330
    O1  O2-  1.0000  0.952860  0.746890  0.711880  Uiso  0.025330
    O1  O2-  1.0000  0.333200  0.018070  0.822340  Uiso  0.025330
    O1  O2-  1.0000  0.456150  0.114440  0.797790  Uiso  0.025330
    O1  O2-  1.0000  0.579100  0.210820  0.773250  Uiso  0.025330
    O1  O2-  1.0000  0.702050  0.307190  0.748700  Uiso  0.025330
    O1  O2-  1.0000  0.825000  0.403560  0.724150  Uiso  0.025330
    O1  O2-  1.0000  0.947950  0.499930  0.699600  Uiso  0.025330
    O1  O2-  1.0000  0.697130  0.060230  0.736430  Uiso  0.025330
    O1  O2-  1.0000  0.820080  0.156610  0.711880  Uiso  0.025330
    O1  O2-  1.0000  0.943030  0.252980  0.687330  Uiso  0.025330
    O1  O2-  1.0000  0.938110  0.006020  0.675060  Uiso  0.025330
    O1  O2-  1.0000  0.106970  0.813150  0.846890  Uiso  0.025330
    O1  O2-  1.0000  0.229920  0.909520  0.822340  Uiso  0.025330
    O1  O2-  1.0000  0.102050  0.566190  0.834620  Uiso  0.025330
    O1  O2-  1.0000  0.225000  0.662560  0.810070  Uiso  0.025330
    O1  O2-  1.0000  0.347950  0.758940  0.785520  Uiso  0.025330
    O1  O2-  1.0000  0.470900  0.855310  0.760970  Uiso  0.025330
    O1  O2-  1.0000  0.593850  0.951680  0.736430  Uiso  0.025330
    O1  O2-  1.0000  0.097130  0.319240  0.822340  Uiso  0.025330
    O1  O2-  1.0000  0.220080  0.415610  0.797790  Uiso  0.025330
    O1  O2-  1.0000  0.343030  0.511980  0.773250  Uiso  0.025330
    O1  O2-  1.0000  0.465980  0.608350  0.748700  Uiso  0.025330
    O1  O2-  1.0000  0.588930  0.704730  0.724150  Uiso  0.025330
    O1  O2-  1.0000  0.711880  0.801100  0.699600  Uiso  0.025330
    O1  O2-  1.0000  0.834830  0.897470  0.675060  Uiso  0.025330
    O1  O2-  1.0000  0.957780  0.993850  0.650510  Uiso  0.025330
    O1  O2-  1.0000  0.092210  0.072280  0.810070  Uiso  0.025330
    O1  O2-  1.0000  0.215160  0.168650  0.785520  Uiso  0.025330
    O1  O2-  1.0000  0.338110  0.265030  0.760970  Uiso  0.025330
    O1  O2-  1.0000  0.461060  0.361400  0.736430  Uiso  0.025330
    O1  O2-  1.0000  0.584010  0.457770  0.711880  Uiso  0.025330
    O1  O2-  1.0000  0.706960  0.554140  0.687330  Uiso  0.025330
    O1  O2-  1.0000  0.829910  0.650520  0.662780  Uiso  0.025330
    O1  O2-  1.0000  0.952860  0.746890  0.638240  Uiso  0.025330
    O1  O2-  1.0000  0.333200  0.018070  0.748700  Uiso  0.025330
    O1  O2-  1.0000  0.456150  0.114440  0.724150  Uiso  0.025330
    O1  O2-  1.0000  0.579100  0.210820  0.699600  Uiso  0.025330
    O1  O2-  1.0000  0.702050  0.307190  0.675060  Uiso  0.025330
    O1  O2-  1.0000  0.825000  0.403560  0.650510  Uiso  0.025330
    O1  O2-  1.0000  0.947950  0.499930  0.625960  Uiso  0.025330
    O1  O2-  1.0000  0.697130  0.060230  0.662780  Uiso  0.025330
    O1  O2-  1.0000  0.820080  0.156610  0.638240  Uiso  0.025330
    O1  O2-  1.0000  0.943030  0.252980  0.613690  Uiso  0.025330
    O1  O2-  1.0000  0.938110  0.006020  0.601410  Uiso  0.025330
    O1  O2-  1.0000  0.106970  0.813150  0.773250  Uiso  0.025330
    O1  O2-  1.0000  0.229920  0.909520  0.748700  Uiso  0.025330
    O1  O2-  1.0000  0.102050  0.566190  0.760970  Uiso  0.025330
    O1  O2-  1.0000  0.225000  0.662560  0.736430  Uiso  0.025330
    O1  O2-  1.0000  0.347950  0.758940  0.711880  Uiso  0.025330
    O1  O2-  1.0000  0.470900  0.855310  0.687330  Uiso  0.025330
    O1  O2-  1.0000  0.593850  0.951680  0.662780  Uiso  0.025330
    O1  O2-  1.0000  0.097130  0.319240  0.748700  Uiso  0.025330
    O1  O2-  1.0000  0.220080  0.415610  0.724150  Uiso  0.025330
    O1  O2-  1.0000  0.343030  0.511980  0.699600  Uiso  0.025330
    O1  O2-  1.0000  0.465980  0.608350  0.675060  Uiso  0.025330
    O1  O2-  1.0000  0.588930  0.704730  0.650510  Uiso  0.025330
    O1  O2-  1.0000  0.711880  0.801100  0.625960  Uiso  0.025330
    O1  O2-  1.0000  0.834830  0.897470  0.601410  Uiso  0.025330
    O1  O2-  1.0000  0.957780  0.993850  0.576870  Uiso  0.025330
    O1  O2-  1.0000  0.092210  0.072280  0.736430  Uiso  0.025330
    O1  O2-  1.0000  0.215160  0.168650  0.711880  Uiso  0.025330
    O1  O2-  1.0000  0.338110  0.265030  0.687330  Uiso  0.025330
    O1  O2-  1.0000  0.461060  0.361400  0.662780  Uiso  0.025330
    O1  O2-  1.0000  0.584010  0.457770  0.638240  Uiso  0.025330
    O1  O2-  1.0000  0.706960  0.554140  0.613690  Uiso  0.025330
    O1  O2-  1.0000  0.829910  0.650520  0.589140  Uiso  0.025330
    O1  O2-  1.0000  0.952860  0.746890  0.564590  Uiso  0.025330
    O1  O2-  1.0000  0.333200  0.018070  0.675060  Uiso  0.025330
    O1  O2-  1.0000  0.456150  0.114440  0.650510  Uiso  0.025330
    O1  O2-  1.0000  0.579100  0.210820  0.625960  Uiso  0.025330
    O1  O2-  1.0000  0.702050  0.307190  0.601410  Uiso  0.025330
    O1  O2-  1.0000  0.825000  0.403560  0.576870  Uiso  0.025330
    O1  O2-  1.0000  0.947950  0.499930  0.552320  Uiso  0.025330
    O1  O2-  1.0000  0.697130  0.060230  0.589140  Uiso  0.025330
    O1  O2-  1.0000  0.820080  0.156610  0.564590  Uiso  0.025330
    O1  O2-  1.0000  0.943030  0.252980  0.540050  Uiso  0.025330
    O1  O2-  1.0000  0.938110  0.006020  0.527770  Uiso  0.025330
    O1  O2-  1.0000  0.106970  0.813150  0.699600  Uiso  0.025330
    O1  O2-  1.0000  0.229920  0.909520  0.675060  Uiso  0.025330
    O1  O2-  1.0000  0.102050  0.566190  0.687330  Uiso  0.025330
    O1  O2-  1.0000  0.225000  0.662560  0.662780  Uiso  0.025330
    O1  O2-  1.0000  0.347950  0.758940  0.638240  Uiso  0.025330
    O1  O2-  1.0000  0.470900  0.855310  0.613690  Uiso  0.025330
    O1  O2-  1.0000  0.593850  0.951680  0.589140  Uiso  0.025330
    O1  O2-  1.0000  0.097130  0.319240  0.675060  Uiso  0.025330
    O1  O2-  1.0000  0.220080  0.415610  0.650510  Uiso  0.025330
    O1  O2-  1.0000  0.343030  0.511980  0.625960  Uiso  0.025330
    O1  O2-  1.0000  0.465980  0.608350  0.601410  Uiso  0.025330
    O1  O2-  1.0000  0.588930  0.704730  0.576870  Uiso  0.025330
    O1  O2-  1.0000  0.711880  0.801100  0.552320  Uiso  0.025330
    O1  O2-  1.0000  0.834830  0.897470  0.527770  Uiso  0.025330
    O1  O2-  1.0000  0.957780  0.993850  0.503220  Uiso  0.025330
    O1  O2-  1.0000  0.092210  0.072280  0.662780  Uiso  0.025330
    O1  O2-  1.0000  0.215160  0.168650  0.638240  Uiso  0.025330
    O1  O2-  1.0000  0.338110  0.265030  0.613690  Uiso  0.025330
    O1  O2-  1.0000  0.461060  0.361400  0.589140  Uiso  0.025330
    O1  O2-  1.0000  0.584010  0.457770  0.564590  Uiso  0.025330
    O1  O2-  1.0000  0.706960  0.554140  0.540050  Uiso  0.025330
    O1  O2-  1.0000  0.829910  0.650520  0.515500  Uiso  0.025330
    O1  O2-  1.0000  0.952860  0.746890  0.490950  Uiso  0.025330
    O1  O2-  1.0000  0.333200  0.018070  0.601410  Uiso  0.025330
    O1  O2-  1.0000  0.456150  0.114440  0.576870  Uiso  0.025330
    O1  O2-  1.0000  0.579100  0.210820  0.552320  Uiso  0.025330
    O1  O2-  1.0000  0.702050  0.307190  0.527770  Uiso  0.025330
    O1  O2-  1.0000  0.825000  0.403560  0.503220  Uiso  0.025330
    O1  O2-  1.0000  0.947950  0.499930  0.478680  Uiso  0.025330
    O1  O2-  1.0000  0.697130  0.060230  0.515500  Uiso  0.025330
    O1  O2-  1.0000  0.820080  0.156610  0.490950  Uiso  0.025330
    O1  O2-  1.0000  0.943030  0.252980  0.466400  Uiso  0.025330
    O1  O2-  1.0000  0.938110  0.006020  0.454130  Uiso  0.025330
    O1  O2-  1.0000  0.106970  0.813150  0.625960  Uiso  0.025330
    O1  O2-  1.0000  0.229920  0.909520  0.601410  Uiso  0.025330
    O1  O2-  1.0000  0.102050  0.566190  0.613690  Uiso  0.025330
    O1  O2-  1.0000  0.225000  0.662560  0.589140  Uiso  0.025330
    O1  O2-  1.0000  0.347950  0.758940  0.564590  Uiso  0.025330
    O1  O2-  1.0000  0.470900  0.855310  0.540050  Uiso  0.025330
    O1  O2-  1.0000  0.593850  0.951680  0.515500  Uiso  0.025330
    O1  O2-  1.0000  0.097130  0.319240  0.601410  Uiso  0.025330
    O1  O2-  1.0000  0.220080  0.415610  0.576870  Uiso  0.025330
    O1  O2-  1.0000  0.343030  0.511980  0.552320  Uiso  0.025330
    O1  O2-  1.0000  0.465980  0.608350  0.527770  Uiso  0.025330
    O1  O2-  1.0000  0.588930  0.704730  0.503220  Uiso  0.025330
    O1  O2-  1.0000  0.711880  0.801100  0.478680  Uiso  0.025330
    O1  O2-  1.0000  0.834830  0.897470  0.454130  Uiso  0.025330
    O1  O2-  1.0000  0.957780  0.993850  0.429580  Uiso  0.025330
    O1  O2-  1.0000  0.092210  0.072280  0.589140  Uiso  0.025330
    O1  O2-  1.0000  0.215160  0.168650  0.564590  Uiso  0.025330
    O1  O2-  1.0000  0.338110  0.265030  0.540050  Uiso  0.025330
    O1  O2-  1.0000  0.461060  0.361400  0.515500  Uiso  0.025330
    O1  O2-  1.0000  0.584010  0.457770  0.490950  Uiso  0.025330
    O1  O2-  1.0000  0.706960  0.554140  0.466400  Uiso  0.025330
    O1  O2-  1.0000  0.829910  0.650520  0.441860  Uiso  0.025330
    O1  O2-  1.0000  0.952860  0.746890  0.417310  Uiso  0.025330
    O1  O2-  1.0000  0.333200  0.018070  0.527770  Uiso  0.025330
    O1  O2-  1.0000  0.456150  0.114440  0.503220  Uiso  0.025330
    O1  O2-  1.0000  0.579100  0.210820  0.478680  Uiso  0.025330
    O1  O2-  1.0000  0.702050  0.307190  0.454130  Uiso  0.025330
    O1  O2-  1.0000  0.825000  0.403560  0.429580  Uiso  0.025330
    O1  O2-  1.0000  0.947950  0.499930  0.405030  Uiso  0.025330
    O1  O2-  1.0000  0.697130  0.060230  0.441860  Uiso  0.025330
    O1  O2-  1.0000  0.820080  0.156610  0.417310  Uiso  0.025330
    O1  O2-  1.0000  0.943030  0.252980  0.392760  Uiso  0.025330
    O1  O2-  1.0000  0.938110  0.006020  0.380490  Uiso  0.025330
    O1  O2-  1.0000  0.106970  0.813150  0.552320  Uiso  0.025330
    O1  O2-  1.0000  0.229920  0.909520  0.527770  Uiso  0.025330
    O1  O2-  1.0000  0.102050  0.566190  0.540050  Uiso  0.025330
    O1  O2-  1.0000  0.225000  0.662560  0.515500  Uiso  0.025330
    O1  O2-  1.0000  0.347950  0.758940  0.490950  Uiso  0.025330
    O1  O2-  1.0000  0.470900  0.855310  0.466400  Uiso  0.025330
    O1  O2-  1.0000  0.593850  0.951680  0.441860  Uiso  0.025330
    O1  O2-  1.0000  0.097130  0.319240  0.527770  Uiso  0.025330
    O1  O2-  1.0000  0.220080  0.415610  0.503220  Uiso  0.025330
    O1  O2-  1.0000  0.343030  0.511980  0.478680  Uiso  0.025330
    O1  O2-  1.0000  0.465980  0.608350  0.454130  Uiso  0.025330
    O1  O2-  1.0000  0.588930  0.704730  0.429580  Uiso  0.025330
    O1  O2-  1.0000  0.711880  0.801100  0.405030  Uiso  0.025330
    O1  O2-  1.0000  0.834830  0.897470  0.380490  Uiso  0.025330
    O1  O2-  1.0000  0.957780  0.993850  0.355940  Uiso  0.025330
    O1  O2-  1.0000  0.092210  0.072280  0.515500  Uiso  0.025330
    O1  O2-  1.0000  0.215160  0.168650  0.490950  Uiso  0.025330
    O1  O2-  1.0000  0.338110  0.265030  0.466400  Uiso  0.025330
    O1  O2-  1.0000  0.461060  0.361400  0.441860  Uiso  0.025330
    O1  O2-  1.0000  0.584010  0.457770  0.417310  Uiso  0.025330
    O1  O2-  1.0000  0.706960  0.554140  0.392760  Uiso  0.025330
    O1  O2-  1.0000  0.829910  0.650520  0.368210  Uiso  0.025330
    O1  O2-  1.0000  0.952860  0.746890  0.343670  Uiso  0.025330
    O1  O2-  1.0000  0.333200  0.018070  0.454130  Uiso  0.025330
    O1  O2-  1.0000  0.456150  0.114440  0.429580  Uiso  0.025330
    O1  O2-  1.0000  0.579100  0.210820  0.405030  Uiso  0.025330
    O1  O2-  1.0000  0.702050  0.307190  0.380490  Uiso  0.025330
    O1  O2-  1.0000  0.825000  0.403560  0.355940  Uiso  0.025330
    O1  O2-  1.0000  0.947950  0.499930  0.331390  Uiso  0.025330
    O1  O2-  1.0000  0.697130  0.060230  0.368210  Uiso  0.025330
    O1  O2-  1.0000  0.820080  0.156610  0.343670  Uiso  0.025330
    O1  O2-  1.0000  0.943030  0.252980  0.319120  Uiso  0.025330
    O1  O2-  1.0000  0.938110  0.006020  0.306840  Uiso  0.025330
    O1  O2-  1.0000  0.106970  0.813150  0.478680  Uiso  0.025330
    O1  O2-  1.0000  0.229920  0.909520  0.454130  Uiso  0.025330
    O1  O2-  1.0000  0.102050  0.566190  0.466400  Uiso  0.025330
    O1  O2-  1.0000  0.225000  0.662560  0.441860  Uiso  0.025330
    O1  O2-  1.0000  0.347950  0.758940  0.417310  Uiso  0.025330
    O1  O2-  1.0000  0.470900  0.855310  0.392760  Uiso  0.025330
    O1  O2-  1.0000  0.593850  0.951680  0.368210  Uiso  0.025330
    O1  O2-  1.0000  0.097130  0.319240  0.454130  Uiso  0.025330
    O1  O2-  1.0000  0.220080  0.415610  0.429580  Uiso  0.025330
    O1  O2-  1.0000  0.343030  0.511980  0.405030  Uiso  0.025330
    O1  O2-  1.0000  0.465980  0.608350  0.380490  Uiso  0.025330
    O1  O2-  1.0000  0.588930  0.704730  0.355940  Uiso  0.025330
    O1  O2-  1.0000  0.711880  0.801100  0.331390  Uiso  0.025330
    O1  O2-  1.0000  0.834830  0.897470  0.306840  Uiso  0.025330
    O1  O2-  1.0000  0.957780  0.993850  0.282300  Uiso  0.025330
    O1  O2-  1.0000  0.092210  0.072280  0.441860  Uiso  0.025330
    O1  O2-  1.0000  0.215160  0.168650  0.417310  Uiso  0.025330
    O1  O2-  1.0000  0.338110  0.265030  0.392760  Uiso  0.025330
    O1  O2-  1.0000  0.461060  0.361400  0.368210  Uiso  0.025330
    O1  O2-  1.0000  0.584010  0.457770  0.343670  Uiso  0.025330
    O1  O2-  1.0000  0.706960  0.554140  0.319120  Uiso  0.025330
    O1  O2-  1.0000  0.829910  0.650520  0.294570  Uiso  0.025330
    O1  O2-  1.0000  0.952860  0.746890  0.270020  Uiso  0.025330
    O1  O2-  1.0000  0.333200  0.018070  0.380490  Uiso  0.025330
    O1  O2-  1.0000  0.456150  0.114440  0.355940  Uiso  0.025330
    O1  O2-  1.0000  0.579100  0.210820  0.331390  Uiso  0.025330
    O1  O2-  1.0000  0.702050  0.307190  0.306840  Uiso  0.025330
    O1  O2-  1.0000  0.825000  0.403560  0.282300  Uiso  0.025330
    O1  O2-  1.0000  0.947950  0.499930  0.257750  Uiso  0.025330
    O1  O2-  1.0000  0.697130  0.060230  0.294570  Uiso  0.025330
    O1  O2-  1.0000  0.820080  0.156610  0.270020  Uiso  0.025330
    O1  O2-  1.0000  0.943030  0.252980  0.245480  Uiso  0.025330
    O1  O2-  1.0000  0.938110  0.006020  0.233200  Uiso  0.025330
    O1  O2-  1.0000  0.106970  0.813150  0.405030  Uiso  0.025330
    O1  O2-  1.0000  0.229920  0.909520  0.380490  Uiso  0.025330
    O1  O2-  1.0000  0.102050  0.566190  0.392760  Uiso  0.025330
    O1  O2-  1.0000  0.225000  0.662560  0.368210  Uiso  0.025330
    O1  O2-  1.0000  0.347950  0.758940  0.343670  Uiso  0.025330
    O1  O2-  1.0000  0.470900  0.855310  0.319120  Uiso  0.025330
    O1  O2-  1.0000  0.593850  0.951680  0.294570  Uiso  0.025330
    O1  O2-  1.0000  0.097130  0.319240  0.380490  Uiso  0.025330
    O1  O2-  1.0000  0.220080  0.415610  0.355940  Uiso  0.025330
    O1  O2-  1.0000  0.343030  0.511980  0.331390  Uiso  0.025330
    O1  O2-  1.0000  0.465980  0.608350  0.306840  Uiso  0.025330
    O1  O2-  1.0000  0.588930  0.704730  0.282300  Uiso  0.025330
    O1  O2-  1.0000  0.711880  0.801100  0.257750  Uiso  0.025330
    O1  O2-  1.0000  0.834830  0.897470  0.233200  Uiso  0.025330
    O1  O2-  1.0000  0.957780  0.993850  0.208650  Uiso  0.025330
    O1  O2-  1.0000  0.092210  0.072280  0.368210  Uiso  0.025330
    O1  O2-  1.0000  0.215160  0.168650  0.343670  Uiso  0.025330
    O1  O2-  1.0000  0.338110  0.265030  0.319120  Uiso  0.025330
    O1  O2-  1.0000  0.461060  0.361400  0.294570  Uiso  0.025330
    O1  O2-  1.0000  0.584010  0.457770  0.270020  Uiso  0.025330
    O1  O2-  1.0000  0.706960  0.554140  0.245480  Uiso  0.025330
    O1  O2-  1.0000  0.829910  0.650520  0.220930  Uiso  0.025330
    O1  O2-  1.0000  0.952860  0.746890  0.196380  Uiso  0.025330
    O1  O2-  1.0000  0.333200  0.018070  0.306840  Uiso  0.025330
    O1  O2-  1.0000  0.456150  0.114440  0.282300  Uiso  0.025330
    O1  O2-  1.0000  0.579100  0.210820  0.257750  Uiso  0.025330
    O1  O2-  1.0000  0.702050  0.307190  0.233200  Uiso  0.025330
    O1  O2-  1.0000  0.825000  0.403560  0.208650  Uiso  0.025330
    O1  O2-  1.0000  0.947950  0.499930  0.184110  Uiso  0.025330
    O1  O2-  1.0000  0.697130  0.060230  0.220930  Uiso  0.025330
    O1  O2-  1.0000  0.820080  0.156610  0.196380  Uiso  0.025330
    O1  O2-  1.0000  0.943030  0.252980  0.171830  Uiso  0.025330
    O1  O2-  1.0000  0.938110  0.006020  0.159560  Uiso  0.025330
    O1  O2-  1.0000  0.106970  0.813150  0.331390  Uiso  0.025330
    O1  O2-  1.0000  0.229920  0.909520  0.306840  Uiso  0.025330
    O1  O2-  1.0000  0.102050  0.566190  0.319120  Uiso  0.025330
    O1  O2-  1.0000  0.225000  0.662560  0.294570  Uiso  0.025330
    O1  O2-  1.0000  0.347950  0.758940  0.270020  Uiso  0.025330
    O1  O2-  1.0000  0.470900  0.855310  0.245480  Uiso  0.025330
    O1  O2-  1.0000  0.593850  0.951680  0.220930  Uiso  0.025330
    O1  O2-  1.0000  0.097130  0.319240  0.306840  Uiso  0.025330
    O1  O2-  1.0000  0.220080  0.415610  0.282300  Uiso  0.025330
    O1  O2-  1.0000  0.343030  0.511980  0.257750  Uiso  0.025330
    O1  O2-  1.0000  0.465980  0.608350  0.233200  Uiso  0.025330
    O1  O2-  1.0000  0.588930  0.704730  0.208650  Uiso  0.025330
    O1  O2-  1.0000  0.711880  0.801100  0.184110  Uiso  0.025330
    O1  O2-  1.0000  0.834830  0.897470  0.159560  Uiso  0.025330
    O1  O2-  1.0000  0.957780  0.993850  0.135010  Uiso  0.025330
    O1  O2-  1.0000  0.092210  0.072280  0.294570  Uiso  0.025330
    O1  O2-  1.0000  0.215160  0.168650  0.270020  Uiso  0.025330
    O1  O2-  1.0000  0.338110  0.265030  0.245480  Uiso  0.025330
    O1  O2-  1.0000  0.461060  0.361400  0.220930  Uiso  0.025330
    O1  O2-  1.0000  0.584010  0.457770  0.196380  Uiso  0.025330
    O1  O2-  1.0000  0.706960  0.554140  0.171830  Uiso  0.025330
    O1  O2-  1.0000  0.829910  0.650520  0.147290  Uiso  0.025330
    O1  O2-  1.0000  0.952860  0.746890  0.122740  Uiso  0.025330
    O1  O2-  1.0000  0.333200  0.018070  0.233200  Uiso  0.025330
    O1  O2-  1.0000  0.456150  0.114440  0.208650  Uiso  0.025330
    O1  O2-  1.0000  0.579100  0.210820  0.184110  Uiso  0.025330
    O1  O2-  1.0000  0.702050  0.307190  0.159560  Uiso  0.025330
    O1  O2-  1.0000  0.825000  0.403560  0.135010  Uiso  0.025330
    O1  O2-  1.0000  0.947950  0.499930  0.110460  Uiso  0.025330
    O1  O2-  1.0000  0.697130  0.060230  0.147290  Uiso  0.025330
    O1  O2-  1.0000  0.820080  0.156610  0.122740  Uiso  0.025330
    O1  O2-  1.0000  0.943030  0.252980  0.098190  Uiso  0.025330
    O1  O2-  1.0000  0.938110  0.006020  0.085920  Uiso  0.025330
    O1  O2-  1.0000  0.106970  0.813150  0.257750  Uiso  0.025330
    O1  O2-  1.0000  0.229920  0.909520  0.233200  Uiso  0.025330
    O1  O2-  1.0000  0.102050  0.566190  0.245480  Uiso  0.025330
    O1  O2-  1.0000  0.225000  0.662560  0.220930  Uiso  0.025330
    O1  O2-  1.0000  0.347950  0.758940  0.196380  Uiso  0.025330
    O1  O2-  1.0000  0.470900  0.855310  0.171830  Uiso  0.025330
    O1  O2-  1.0000  0.593850  0.951680  0.147290  Uiso  0.025330
    O1  O2-  1.0000  0.097130  0.319240  0.233200  Uiso  0.025330
    O1  O2-  1.0000  0.220080  0.415610  0.208650  Uiso  0.025330
    O1  O2-  1.0000  0.343030  0.511980  0.184110  Uiso  0.025330
    O1  O2-  1.0000  0.465980  0.608350  0.159560  Uiso  0.025330
    O1  O2-  1.0000  0.588930  0.704730  0.135010  Uiso  0.025330
    O1  O2-  1.0000  0.711880  0.801100  0.110460  Uiso  0.025330
    O1  O2-  1.0000  0.834830  0.897470  0.085920  Uiso  0.025330
    O1  O2-  1.0000  0.957780  0.993850  0.061370  Uiso  0.025330
    O1  O2-  1.0000  0.092210  0.072280  0.220930  Uiso  0.025330
    O1  O2-  1.0000  0.215160  0.168650  0.196380  Uiso  0.025330
    O1  O2-  1.0000  0.338110  0.265030  0.171830  Uiso  0.025330
    O1  O2-  1.0000  0.461060  0.361400  0.147290  Uiso  0.025330
    O1  O2-  1.0000  0.584010  0.457770  0.122740  Uiso  0.025330
    O1  O2-  1.0000  0.706960  0.554140  0.098190  Uiso  0.025330
    O1  O2-  1.0000  0.829910  0.650520  0.073640  Uiso  0.025330
    O1  O2-  1.0000  0.952860  0.746890  0.049100  Uiso  0.025330
    O1  O2-  1.0000  0.333200  0.018070  0.159560  Uiso  0.025330
    O1  O2-  1.0000  0.456150  0.114440  0.135010  Uiso  0.025330
    O1  O2-  1.0000  0.579100  0.210820  0.110460  Uiso  0.025330
    O1  O2-  1.0000  0.702050  0.307190  0.085920  Uiso  0.025330
    O1  O2-  1.0000  0.825000  0.403560  0.061370  Uiso  0.025330
    O1  O2-  1.0000  0.947950  0.499930  0.036820  Uiso  0.025330
    O1  O2-  1.0000  0.697130  0.060230  0.073640  Uiso  0.025330
    O1  O2-  1.0000  0.820080  0.156610  0.049100  Uiso  0.025330
    O1  O2-  1.0000  0.943030  0.252980  0.024550  Uiso  0.025330
    O1  O2-  1.0000  0.938110  0.006020  0.012270  Uiso  0.025330
    O1  O2-  1.0000  0.106970  0.813150  0.184110  Uiso  0.025330
    O1  O2-  1.0000  0.229920  0.909520  0.159560  Uiso  0.025330
    O1  O2-  1.0000  0.102050  0.566190  0.171830  Uiso  0.025330
    O1  O2-  1.0000  0.225000  0.662560  0.147290  Uiso  0.025330
    O1  O2-  1.0000  0.347950  0.758940  0.122740  Uiso  0.025330
    O1  O2-  1.0000  0.470900  0.855310  0.098190  Uiso  0.025330
    O1  O2-  1.0000  0.593850  0.951680  0.073640  Uiso  0.025330
    O1  O2-  1.0000  0.097130  0.319240  0.159560  Uiso  0.025330
    O1  O2-  1.0000  0.220080  0.415610  0.135010  Uiso  0.025330
    O1  O2-  1.0000  0.343030  0.511980  0.110460  Uiso  0.025330
    O1  O2-  1.0000  0.465980  0.608350  0.085920  Uiso  0.025330
    O1  O2-  1.0000  0.588930  0.704730  0.061370  Uiso  0.025330
    O1  O2-  1.0000  0.711880  0.801100  0.036820  Uiso  0.025330
    O1  O2-  1.0000  0.834830  0.897470  0.012270  Uiso  0.025330
    O1  O2-  1.0000  0.092210  0.072280  0.147290  Uiso  0.025330
    O1  O2-  1.0000  0.215160  0.168650  0.122740  Uiso  0.025330
    O1  O2-  1.0000  0.338110  0.265030  0.098190  Uiso  0.025330
    O1  O2-  1.0000  0.461060  0.361400  0.073640  Uiso  0.025330
    O1  O2-  1.0000  0.584010  0.457770  0.049100  Uiso  0.025330
    O1  O2-  1.0000  0.706960  0.554140  0.024550  Uiso  0.025330
    O1  O2-  1.0000  0.829910  0.650520  0.000000  Uiso  0.025330
    O1  O2-  1.0000  0.333200  0.018070  0.085920  Uiso  0.025330
    O1  O2-  1.0000  0.456150  0.114440  0.061370  Uiso  0.025330
    O1  O2-  1.0000  0.579100  0.210820  0.036820  Uiso  0.025330
    O1  O2-  1.0000  0.702050  0.307190  0.012270  Uiso  0.025330
    O1  O2-  1.0000  0.697130  0.060230  0.000000  Uiso  0.025330
    O1  O2-  1.0000  0.106970  0.813150  0.110460  Uiso  0.025330
    O1  O2-  1.0000  0.229920  0.909520  0.085920  Uiso  0.025330
    O1  O2-  1.0000  0.102050  0.566190  0.098190  Uiso  0.025330
    O1  O2-  1.0000  0.225000  0.662560  0.073640  Uiso  0.025330
    O1  O2-  1.0000  0.347950  0.758940  0.049100  Uiso  0.025330
    O1  O2-  1.0000  0.470900  0.855310  0.024550  Uiso  0.025330
    O1  O2-  1.0000  0.593850  0.951680  0.000000  Uiso  0.025330
    O1  O2-  1.0000  0.097130  0.319240  0.085920  Uiso  0.025330
    O1  O2-  1.0000  0.220080  0.415610  0.061370  Uiso  0.025330
    O1  O2-  1.0000  0.343030  0.511980  0.036820  Uiso  0.025330
    O1  O2-  1.0000  0.465980  0.608350  0.012270  Uiso  0.025330
    O1  O2-  1.0000  0.092210  0.072280  0.073640  Uiso  0.025330
    O1  O2-  1.0000  0.215160  0.168650  0.049100  Uiso  0.025330
    O1  O2-  1.0000  0.338110  0.265030  0.024550  Uiso  0.025330
    O1  O2-  1.0000  0.461060  0.361400  0.000000  Uiso  0.025330
    O1  O2-  1.0000  0.333200  0.018070  0.012270  Uiso  0.025330
    O1  O2-  1.0000  0.106970  0.813150  0.036820  Uiso  0.025330
    O1  O2-  1.0000  0.229920  0.909520  0.012270  Uiso  0.025330
    O1  O2-  1.0000  0.102050  0.566190  0.024550  Uiso  0.025330
    O1  O2-  1.0000  0.225000  0.662560  0.000000  Uiso  0.025330
    O1  O2-  1.0000  0.097130  0.319240  0.012270  Uiso  0.025330
    O1  O2-  1.0000  0.092210  0.072280  0.000000  Uiso  0.025330
    O1  O2-  1.0000  0.879090  0.081310  0.988040  Uiso  0.025330
    O1  O2-  1.0000  0.775820  0.972760  0.988040  Uiso  0.025330
    O1  O2-  1.0000  0.770900  0.725810  0.975760  Uiso  0.025330
    O1  O2-  1.0000  0.893850  0.822180  0.951220  Uiso  0.025330
    O1  O2-  1.0000  0.643030  0.382480  0.988040  Uiso  0.025330
    O1  O2-  1.0000  0.765980  0.478850  0.963490  Uiso  0.025330
    O1  O2-  1.0000  0.888930  0.575230  0.938940  Uiso  0.025330
    O1  O2-  1.0000  0.638110  0.135520  0.975760  Uiso  0.025330
    O1  O2-  1.0000  0.761060  0.231900  0.951220  Uiso  0.025330
    O1  O2-  1.0000  0.884010  0.328270  0.926670  Uiso  0.025330
    O1  O2-  1.0000  0.879090  0.081310  0.914400  Uiso  0.025330
    O1  O2-  1.0000  0.406970  0.683650  0.988040  Uiso  0.025330
    O1  O2-  1.0000  0.529920  0.780020  0.963490  Uiso  0.025330
    O1  O2-  1.0000  0.652870  0.876390  0.938940  Uiso  0.025330
    O1  O2-  1.0000  0.775820  0.972760  0.914400  Uiso  0.025330
    O1  O2-  1.0000  0.402050  0.436690  0.975760  Uiso  0.025330
    O1  O2-  1.0000  0.525000  0.533060  0.951220  Uiso  0.025330
    O1  O2-  1.0000  0.647950  0.629440  0.926670  Uiso  0.025330
    O1  O2-  1.0000  0.770900  0.725810  0.902120  Uiso  0.025330
    O1  O2-  1.0000  0.893850  0.822180  0.877570  Uiso  0.025330
    O1  O2-  1.0000  0.274180  0.093360  0.988040  Uiso  0.025330
    O1  O2-  1.0000  0.397130  0.189730  0.963490  Uiso  0.025330
    O1  O2-  1.0000  0.520080  0.286110  0.938940  Uiso  0.025330
    O1  O2-  1.0000  0.643030  0.382480  0.914400  Uiso  0.025330
    O1  O2-  1.0000  0.765980  0.478850  0.889850  Uiso  0.025330
    O1  O2-  1.0000  0.888930  0.575230  0.865300  Uiso  0.025330
    O1  O2-  1.0000  0.515160  0.039150  0.926670  Uiso  0.025330
    O1  O2-  1.0000  0.638110  0.135520  0.902120  Uiso  0.025330
    O1  O2-  1.0000  0.761060  0.231900  0.877570  Uiso  0.025330
    O1  O2-  1.0000  0.884010  0.328270  0.853030  Uiso  0.025330
    O1  O2-  1.0000  0.879090  0.081310  0.840750  Uiso  0.025330
    O1  O2-  1.0000  0.170900  0.984810  0.988040  Uiso  0.025330
    O1  O2-  1.0000  0.165980  0.737860  0.975760  Uiso  0.025330
    O1  O2-  1.0000  0.288930  0.834230  0.951220  Uiso  0.025330
    O1  O2-  1.0000  0.411880  0.930600  0.926670  Uiso  0.025330
    O1  O2-  1.0000  0.038110  0.394530  0.988040  Uiso  0.025330
    O1  O2-  1.0000  0.161060  0.490900  0.963490  Uiso  0.025330
    O1  O2-  1.0000  0.284020  0.587270  0.938940  Uiso  0.025330
    O1  O2-  1.0000  0.406970  0.683650  0.914400  Uiso  0.025330
    O1  O2-  1.0000  0.529920  0.780020  0.889850  Uiso  0.025330
    O1  O2-  1.0000  0.652870  0.876390  0.865300  Uiso  0.025330
    O1  O2-  1.0000  0.775820  0.972760  0.840750  Uiso  0.025330
    O1  O2-  1.0000  0.033200  0.147570  0.975760  Uiso  0.025330
    O1  O2-  1.0000  0.156150  0.243940  0.951220  Uiso  0.025330
    O1  O2-  1.0000  0.279100  0.340320  0.926670  Uiso  0.025330
    O1  O2-  1.0000  0.402050  0.436690  0.902120  Uiso  0.025330
    O1  O2-  1.0000  0.525000  0.533060  0.877570  Uiso  0.025330
    O1  O2-  1.0000  0.647950  0.629440  0.853030  Uiso  0.025330
    O1  O2-  1.0000  0.770900  0.725810  0.828480  Uiso  0.025330
    O1  O2-  1.0000  0.893850  0.822180  0.803930  Uiso  0.025330
    O1  O2-  1.0000  0.274180  0.093360  0.914400  Uiso  0.025330
    O1  O2-  1.0000  0.397130  0.189730  0.889850  Uiso  0.025330
    O1  O2-  1.0000  0.520080  0.286110  0.865300  Uiso  0.025330
    O1  O2-  1.0000  0.643030  0.382480  0.840750  Uiso  0.025330
    O1  O2-  1.0000  0.765980  0.478850  0.816200  Uiso  0.025330
    O1  O2-  1.0000  0.888930  0.575230  0.791660  Uiso  0.025330
    O1  O2-  1.0000  0.515160  0.039150  0.853030  Uiso  0.025330
    O1  O2-  1.0000  0.638110  0.135520  0.828480  Uiso  0.025330
    O1  O2-  1.0000  0.761060  0.231900  0.803930  Uiso  0.025330
    O1  O2-  1.0000  0.884010  0.328270  0.779380  Uiso  0.025330
    O1  O2-  1.0000  0.879090  0.081310  0.767110  Uiso  0.025330
    O1  O2-  1.0000  0.047950  0.888440  0.938940  Uiso  0.025330
    O1  O2-  1.0000  0.170900  0.984810  0.914400  Uiso  0.025330
    O1  O2-  1.0000  0.043030  0.641480  0.926670  Uiso  0.025330
    O1  O2-  1.0000  0.165980  0.737860  0.902120  Uiso  0.025330
    O1  O2-  1.0000  0.288930  0.834230  0.877570  Uiso  0.025330
    O1  O2-  1.0000  0.411880  0.930600  0.853030  Uiso  0.025330
    O1  O2-  1.0000  0.038110  0.394530  0.914400  Uiso  0.025330
    O1  O2-  1.0000  0.161060  0.490900  0.889850  Uiso  0.025330
    O1  O2-  1.0000  0.284020  0.587270  0.865300  Uiso  0.025330
    O1  O2-  1.0000  0.406970  0.683650  0.840750  Uiso  0.025330
    O1  O2-  1.0000  0.529920  0.780020  0.816200  Uiso  0.025330
    O1  O2-  1.0000  0.652870  0.876390  0.791660  Uiso  0.025330
    O1  O2-  1.0000  0.775820  0.972760  0.767110  Uiso  0.025330
    O1  O2-  1.0000  0.033200  0.147570  0.902120  Uiso  0.025330
    O1  O2-  1.0000  0.156150  0.243940  0.877570  Uiso  0.025330
    O1  O2-  1.0000  0.279100  0.340320  0.853030  Uiso  0.025330
    O1  O2-  1.0000  0.402050  0.436690  0.828480  Uiso  0.025330
    O1  O2-  1.0000  0.525000  0.533060  0.803930  Uiso  0.025330
    O1  O2-  1.0000  0.647950  0.629440  0.779380  Uiso  0.025330
    O1  O2-  1.0000  0.770900  0.725810  0.754840  Uiso  0.025330
    O1  O2-  1.0000  0.893850  0.822180  0.730290  Uiso  0.025330
    O1  O2-  1.0000  0.274180  0.093360  0.840750  Uiso  0.025330
    O1  O2-  1.0000  0.397130  0.189730  0.816200  Uiso  0.025330
    O1  O2-  1.0000  0.520080  0.286110  0.791660  Uiso  0.025330
    O1  O2-  1.0000  0.643030  0.382480  0.767110  Uiso  0.025330
    O1  O2-  1.0000  0.765980  0.478850  0.742560  Uiso  0.025330
    O1  O2-  1.0000  0.888930  0.575230  0.718010  Uiso  0.025330
    O1  O2-  1.0000  0.515160  0.039150  0.779380  Uiso  0.025330
    O1  O2-  1.0000  0.638110  0.135520  0.754840  Uiso  0.025330
    O1  O2-  1.0000  0.761060  0.231900  0.730290  Uiso  0.025330
    O1  O2-  1.0000  0.884010  0.328270  0.705740  Uiso  0.025330
    O1  O2-  1.0000  0.879090  0.081310  0.693470  Uiso  0.025330
    O1  O2-  1.0000  0.047950  0.888440  0.865300  Uiso  0.025330
    O1  O2-  1.0000  0.170900  0.984810  0.840750  Uiso  0.025330
    O1  O2-  1.0000  0.043030  0.641480  0.853030  Uiso  0.025330
    O1  O2-  1.0000  0.165980  0.737860  0.828480  Uiso  0.025330
    O1  O2-  1.0000  0.288930  0.834230  0.803930  Uiso  0.025330
    O1  O2-  1.0000  0.411880  0.930600  0.779380  Uiso  0.025330
    O1  O2-  1.0000  0.038110  0.394530  0.840750  Uiso  0.025330
    O1  O2-  1.0000  0.161060  0.490900  0.816200  Uiso  0.025330
    O1  O2-  1.0000  0.284020  0.587270  0.791660  Uiso  0.025330
    O1  O2-  1.0000  0.406970  0.683650  0.767110  Uiso  0.025330
    O1  O2-  1.0000  0.529920  0.780020  0.742560  Uiso  0.025330
    O1  O2-  1.0000  0.652870  0.876390  0.718010  Uiso  0.025330
    O1  O2-  1.0000  0.775820  0.972760  0.693470  Uiso  0.025330
    O1  O2-  1.0000  0.033200  0.147570  0.828480  Uiso  0.025330
    O1  O2-  1.0000  0.156150  0.243940  0.803930  Uiso  0.025330
    O1  O2-  1.0000  0.279100  0.340320  0.779380  Uiso  0.025330
    O1  O2-  1.0000  0.402050  0.436690  0.754840  Uiso  0.025330
    O1  O2-  1.0000  0.525000  0.533060  0.730290  Uiso  0.025330
    O1  O2-  1.0000  0.647950  0.629440  0.705740  Uiso  0.025330
    O1  O2-  1.0000  0.770900  0.725810  0.681190  Uiso  0.025330
    O1  O2-  1.0000  0.893850  0.822180  0.656650  Uiso  0.025330
    O1  O2-  1.0000  0.274180  0.093360  0.767110  Uiso  0.025330
    O1  O2-  1.0000  0.397130  0.189730  0.742560  Uiso  0.025330
    O1  O2-  1.0000  0.520080  0.286110  0.718010  Uiso  0.025330
    O1  O2-  1.0000  0.643030  0.382480  0.693470  Uiso  0.025330
    O1  O2-  1.0000  0.765980  0.478850  0.668920  Uiso  0.025330
    O1  O2-  1.0000  0.888930  0.575230  0.644370  Uiso  0.025330
    O1  O2-  1.0000  0.515160  0.039150  0.705740  Uiso  0.025330
    O1  O2-  1.0000  0.638110  0.135520  0.681190  Uiso  0.025330
    O1  O2-  1.0000  0.761060  0.231900  0.656650  Uiso  0.025330
    O1  O2-  1.0000  0.884010  0.328270  0.632100  Uiso  0.025330
    O1  O2-  1.0000  0.879090  0.081310  0.619820  Uiso  0.025330
    O1  O2-  1.0000  0.047950  0.888440  0.791660  Uiso  0.025330
    O1  O2-  1.0000  0.170900  0.984810  0.767110  Uiso  0.025330
    O1  O2-  1.0000  0.043030  0.641480  0.779380  Uiso  0.025330
    O1  O2-  1.0000  0.165980  0.737860  0.754840  Uiso  0.025330
    O1  O2-  1.0000  0.288930  0.834230  0.730290  Uiso  0.025330
    O1  O2-  1.0000  0.411880  0.930600  0.705740  Uiso  0.025330
    O1  O2-  1.0000  0.038110  0.394530  0.767110  Uiso  0.025330
    O1  O2-  1.0000  0.161060  0.490900  0.742560  Uiso  0.025330
    O1  O2-  1.0000  0.284020  0.587270  0.718010  Uiso  0.025330
    O1  O2-  1.0000  0.406970  0.683650  0.693470  Uiso  0.025330
    O1  O2-  1.0000  0.529920  0.780020  0.668920  Uiso  0.025330
    O1  O2-  1.0000  0.652870  0.876390  0.644370  Uiso  0.025330
    O1  O2-  1.0000  0.775820  0.972760  0.619820  Uiso  0.025330
    O1  O2-  1.0000  0.033200  0.147570  0.754840  Uiso  0.025330
    O1  O2-  1.0000  0.156150  0.243940  0.730290  Uiso  0.025330
    O1  O2-  1.0000  0.279100  0.340320  0.705740  Uiso  0.025330
    O1  O2-  1.0000  0.402050  0.436690  0.681190  Uiso  0.025330
    O1  O2-  1.0000  0.525000  0.533060  0.656650  Uiso  0.025330
    O1  O2-  1.0000  0.647950  0.629440  0.632100  Uiso  0.025330
    O1  O2-  1.0000  0.770900  0.725810  0.607550  Uiso  0.025330
    O1  O2-  1.0000  0.893850  0.822180  0.583000  Uiso  0.025330
    O1  O2-  1.0000  0.274180  0.093360  0.693470  Uiso  0.025330
    O1  O2-  1.0000  0.397130  0.189730  0.668920  Uiso  0.025330
    O1  O2-  1.0000  0.520080  0.286110  0.644370  Uiso  0.025330
    O1  O2-  1.0000  0.643030  0.382480  0.619820  Uiso  0.025330
    O1  O2-  1.0000  0.765980  0.478850  0.595280  Uiso  0.025330
    O1  O2-  1.0000  0.888930  0.575230  0.570730  Uiso  0.025330
    O1  O2-  1.0000  0.515160  0.039150  0.632100  Uiso  0.025330
    O1  O2-  1.0000  0.638110  0.135520  0.607550  Uiso  0.025330
    O1  O2-  1.0000  0.761060  0.231900  0.583000  Uiso  0.025330
    O1  O2-  1.0000  0.884010  0.328270  0.558460  Uiso  0.025330
    O1  O2-  1.0000  0.879090  0.081310  0.546180  Uiso  0.025330
    O1  O2-  1.0000  0.047950  0.888440  0.718010  Uiso  0.025330
    O1  O2-  1.0000  0.170900  0.984810  0.693470  Uiso  0.025330
    O1  O2-  1.0000  0.043030  0.641480  0.705740  Uiso  0.025330
    O1  O2-  1.0000  0.165980  0.737860  0.681190  Uiso  0.025330
    O1  O2-  1.0000  0.288930  0.834230  0.656650  Uiso  0.025330
    O1  O2-  1.0000  0.411880  0.930600  0.632100  Uiso  0.025330
    O1  O2-  1.0000  0.038110  0.394530  0.693470  Uiso  0.025330
    O1  O2-  1.0000  0.161060  0.490900  0.668920  Uiso  0.025330
    O1  O2-  1.0000  0.284020  0.587270  0.644370  Uiso  0.025330
    O1  O2-  1.0000  0.406970  0.683650  0.619820  Uiso  0.025330
    O1  O2-  1.0000  0.529920  0.780020  0.595280  Uiso  0.025330
    O1  O2-  1.0000  0.652870  0.876390  0.570730  Uiso  0.025330
    O1  O2-  1.0000  0.775820  0.972760  0.546180  Uiso  0.025330
    O1  O2-  1.0000  0.033200  0.147570  0.681190  Uiso  0.025330
    O1  O2-  1.0000  0.156150  0.243940  0.656650  Uiso  0.025330
    O1  O2-  1.0000  0.279100  0.340320  0.632100  Uiso  0.025330
    O1  O2-  1.0000  0.402050  0.436690  0.607550  Uiso  0.025330
    O1  O2-  1.0000  0.525000  0.533060  0.583000  Uiso  0.025330
    O1  O2-  1.0000  0.647950  0.629440  0.558460  Uiso  0.025330
    O1  O2-  1.0000  0.770900  0.725810  0.533910  Uiso  0.025330
    O1  O2-  1.0000  0.893850  0.822180  0.509360  Uiso  0.025330
    O1  O2-  1.0000  0.274180  0.093360  0.619820  Uiso  0.025330
    O1  O2-  1.0000  0.397130  0.189730  0.595280  Uiso  0.025330
    O1  O2-  1.0000  0.520080  0.286110  0.570730  Uiso  0.025330
    O1  O2-  1.0000  0.643030  0.382480  0.546180  Uiso  0.025330
    O1  O2-  1.0000  0.765980  0.478850  0.521630  Uiso  0.025330
    O1  O2-  1.0000  0.888930  0.575230  0.497090  Uiso  0.025330
    O1  O2-  1.0000  0.515160  0.039150  0.558460  Uiso  0.025330
    O1  O2-  1.0000  0.638110  0.135520  0.533910  Uiso  0.025330
    O1  O2-  1.0000  0.761060  0.231900  0.509360  Uiso  0.025330
    O1  O2-  1.0000  0.884010  0.328270  0.484810  Uiso  0.025330
    O1  O2-  1.0000  0.879090  0.081310  0.472540  Uiso  0.025330
    O1  O2-  1.0000  0.047950  0.888440  0.644370  Uiso  0.025330
    O1  O2-  1.0000  0.170900  0.984810  0.619820  Uiso  0.025330
    O1  O2-  1.0000  0.043030  0.641480  0.632100  Uiso  0.025330
    O1  O2-  1.0000  0.165980  0.737860  0.607550  Uiso  0.025330
    O1  O2-  1.0000  0.288930  0.834230  0.583000  Uiso  0.025330
    O1  O2-  1.0000  0.411880  0.930600  0.558460  Uiso  0.025330
    O1  O2-  1.0000  0.038110  0.394530  0.619820  Uiso  0.025330
    O1  O2-  1.0000  0.161060  0.490900  0.595280  Uiso  0.025330
    O1  O2-  1.0000  0.284020  0.587270  0.570730  Uiso  0.025330
    O1  O2-  1.0000  0.406970  0.683650  0.546180  Uiso  0.025330
    O1  O2-  1.0000  0.529920  0.780020  0.521630  Uiso  0.025330
    O1  O2-  1.0000  0.652870  0.876390  0.497090  Uiso  0.025330
    O1  O2-  1.0000  0.775820  0.972760  0.472540  Uiso  0.025330
    O1  O2-  1.0000  0.033200  0.147570  0.607550  Uiso  0.025330
    O1  O2-  1.0000  0.156150  0.243940  0.583000  Uiso  0.025330
    O1  O2-  1.0000  0.279100  0.340320  0.558460  Uiso  0.025330
    O1  O2-  1.0000  0.402050  0.436690  0.533910  Uiso  0.025330
    O1  O2-  1.0000  0.525000  0.533060  0.509360  Uiso  0.025330
    O1  O2-  1.0000  0.647950  0.629440  0.484810  Uiso  0.025330
    O1  O2-  1.0000  0.770900  0.725810  0.460270  Uiso  0.025330
    O1  O2-  1.0000  0.893850  0.822180  0.435720  Uiso  0.025330
    O1  O2-  1.0000  0.274180  0.093360  0.546180  Uiso  0.025330
    O1  O2-  1.0000  0.397130  0.189730  0.521630  Uiso  0.025330
    O1  O2-  1.0000  0.520080  0.286110  0.497090  Uiso  0.025330
    O1  O2-  1.0000  0.643030  0.382480  0.472540  Uiso  0.025330
    O1  O2-  1.0000  0.765980  0.478850  0.447990  Uiso  0.025330
    O1  O2-  1.0000  0.888930  0.575230  0.423440  Uiso  0.025330
    O1  O2-  1.0000  0.515160  0.039150  0.484810  Uiso  0.025330
    O1  O2-  1.0000  0.638110  0.135520  0.460270  Uiso  0.025330
    O1  O2-  1.0000  0.761060  0.231900  0.435720  Uiso  0.025330
    O1  O2-  1.0000  0.884010  0.328270  0.411170  Uiso  0.025330
    O1  O2-  1.0000  0.879090  0.081310  0.398900  Uiso  0.025330
    O1  O2-  1.0000  0.047950  0.888440  0.570730  Uiso  0.025330
    O1  O2-  1.0000  0.170900  0.984810  0.546180  Uiso  0.025330
    O1  O2-  1.0000  0.043030  0.641480  0.558460  Uiso  0.025330
    O1  O2-  1.0000  0.165980  0.737860  0.533910  Uiso  0.025330
    O1  O2-  1.0000  0.288930  0.834230  0.509360  Uiso  0.025330
    O1  O2-  1.0000  0.411880  0.930600  0.484810  Uiso  0.025330
    O1  O2-  1.0000  0.038110  0.394530  0.546180  Uiso  0.025330
    O1  O2-  1.0000  0.161060  0.490900  0.521630  Uiso  0.025330
    O1  O2-  1.0000  0.284020  0.587270  0.497090  Uiso  0.025330
    O1  O2-  1.0000  0.406970  0.683650  0.472540  Uiso  0.025330
    O1  O2-  1.0000  0.529920  0.780020  0.447990  Uiso  0.025330
    O1  O2-  1.0000  0.652870  0.876390  0.423440  Uiso  0.025330
    O1  O2-  1.0000  0.775820  0.972760  0.398900  Uiso  0.025330
    O1  O2-  1.0000  0.033200  0.147570  0.533910  Uiso  0.025330
    O1  O2-  1.0000  0.156150  0.243940  0.509360  Uiso  0.025330
    O1  O2-  1.0000  0.279100  0.340320  0.484810  Uiso  0.025330
    O1  O2-  1.0000  0.402050  0.436690  0.460270  Uiso  0.025330
    O1  O2-  1.0000  0.525000  0.533060  0.435720  Uiso  0.025330
    O1  O2-  1.0000  0.647950  0.629440  0.411170  Uiso  0.025330
    O1  O2-  1.0000  0.770900  0.725810  0.386620  Uiso  0.025330
    O1  O2-  1.0000  0.893850  0.822180  0.362080  Uiso  0.025330
    O1  O2-  1.0000  0.274180  0.093360  0.472540  Uiso  0.025330
    O1  O2-  1.0000  0.397130  0.189730  0.447990  Uiso  0.025330
    O1  O2-  1.0000  0.520080  0.286110  0.423440  Uiso  0.025330
    O1  O2-  1.0000  0.643030  0.382480  0.398900  Uiso  0.025330
    O1  O2-  1.0000  0.765980  0.478850  0.374350  Uiso  0.025330
    O1  O2-  1.0000  0.888930  0.575230  0.349800  Uiso  0.025330
    O1  O2-  1.0000  0.515160  0.039150  0.411170  Uiso  0.025330
    O1  O2-  1.0000  0.638110  0.135520  0.386620  Uiso  0.025330
    O1  O2-  1.0000  0.761060  0.231900  0.362080  Uiso  0.025330
    O1  O2-  1.0000  0.884010  0.328270  0.337530  Uiso  0.025330
    O1  O2-  1.0000  0.879090  0.081310  0.325250  Uiso  0.025330
    O1  O2-  1.0000  0.047950  0.888440  0.497090  Uiso  0.025330
    O1  O2-  1.0000  0.170900  0.984810  0.472540  Uiso  0.025330
    O1  O2-  1.0000  0.043030  0.641480  0.484810  Uiso  0.025330
    O1  O2-  1.0000  0.165980  0.737860  0.460270  Uiso  0.025330
    O1  O2-  1.0000  0.288930  0.834230  0.435720  Uiso  0.025330
    O1  O2-  1.0000  0.411880  0.930600  0.411170  Uiso  0.025330
    O1  O2-  1.0000  0.038110  0.394530  0.472540  Uiso  0.025330
    O1  O2-  1.0000  0.161060  0.490900  0.447990  Uiso  0.025330
    O1  O2-  1.0000  0.284020  0.587270  0.423440  Uiso  0.025330
    O1  O2-  1.0000  0.406970  0.683650  0.398900  Uiso  0.025330
    O1  O2-  1.0000  0.529920  0.780020  0.374350  Uiso  0.025330
    O1  O2-  1.0000  0.652870  0.876390  0.349800  Uiso  0.025330
    O1  O2-  1.0000  0.775820  0.972760  0.325250  Uiso  0.025330
    O1  O2-  1.0000  0.033200  0.147570  0.460270  Uiso  0.025330
    O1  O2-  1.0000  0.156150  0.243940  0.435720  Uiso  0.025330
    O1  O2-  1.0000  0.279100  0.340320  0.411170  Uiso  0.025330
    O1  O2-  1.0000  0.402050  0.436690  0.386620  Uiso  0.025330
    O1  O2-  1.0000  0.525000  0.533060  0.362080  Uiso  0.025330
    O1  O2-  1.0000  0.647950  0.629440  0.337530  Uiso  0.025330
    O1  O2-  1.0000  0.770900  0.725810  0.312980  Uiso  0.025330
    O1  O2-  1.0000  0.893850  0.822180  0.288430  Uiso  0.025330
    O1  O2-  1.0000  0.274180  0.093360  0.398900  Uiso  0.025330
    O1  O2-  1.0000  0.397130  0.189730  0.374350  Uiso  0.025330
    O1  O2-  1.0000  0.520080  0.286110  0.349800  Uiso  0.025330
    O1  O2-  1.0000  0.643030  0.382480  0.325250  Uiso  0.025330
    O1  O2-  1.0000  0.765980  0.478850  0.300710  Uiso  0.025330
    O1  O2-  1.0000  0.888930  0.575230  0.276160  Uiso  0.025330
    O1  O2-  1.0000  0.515160  0.039150  0.337530  Uiso  0.025330
    O1  O2-  1.0000  0.638110  0.135520  0.312980  Uiso  0.025330
    O1  O2-  1.0000  0.761060  0.231900  0.288430  Uiso  0.025330
    O1  O2-  1.0000  0.884010  0.328270  0.263890  Uiso  0.025330
    O1  O2-  1.0000  0.879090  0.081310  0.251610  Uiso  0.025330
    O1  O2-  1.0000  0.047950  0.888440  0.423440  Uiso  0.025330
    O1  O2-  1.0000  0.170900  0.984810  0.398900  Uiso  0.025330
    O1  O2-  1.0000  0.043030  0.641480  0.411170  Uiso  0.025330
    O1  O2-  1.0000  0.165980  0.737860  0.386620  Uiso  0.025330
    O1  O2-  1.0000  0.288930  0.834230  0.362080  Uiso  0.025330
    O1  O2-  1.0000  0.411880  0.930600  0.337530  Uiso  0.025330
    O1  O2-  1.0000  0.038110  0.394530  0.398900  Uiso  0.025330
    O1  O2-  1.0000  0.161060  0.490900  0.374350  Uiso  0.025330
    O1  O2-  1.0000  0.284020  0.587270  0.349800  Uiso  0.025330
    O1  O2-  1.0000  0.406970  0.683650  0.325250  Uiso  0.025330
    O1  O2-  1.0000  0.529920  0.780020  0.300710  Uiso  0.025330
    O1  O2-  1.0000  0.652870  0.876390  0.276160  Uiso  0.025330
    O1  O2-  1.0000  0.775820  0.972760  0.251610  Uiso  0.025330
    O1  O2-  1.0000  0.033200  0.147570  0.386620  Uiso  0.025330
    O1  O2-  1.0000  0.156150  0.243940  0.362080  Uiso  0.025330
    O1  O2-  1.0000  0.279100  0.340320  0.337530  Uiso  0.025330
    O1  O2-  1.0000  0.402050  0.436690  0.312980  Uiso  0.025330
    O1  O2-  1.0000  0.525000  0.533060  0.288430  Uiso  0.025330
    O1  O2-  1.0000  0.647950  0.629440  0.263890  Uiso  0.025330
    O1  O2-  1.0000  0.770900  0.725810  0.239340  Uiso  0.025330
    O1  O2-  1.0000  0.893850  0.822180  0.214790  Uiso  0.025330
    O1  O2-  1.0000  0.274180  0.093360  0.325250  Uiso  0.025330
    O1  O2-  1.0000  0.397130  0.189730  0.300710  Uiso  0.025330
    O1  O2-  1.0000  0.520080  0.286110  0.276160  Uiso  0.025330
    O1  O2-  1.0000  0.643030  0.382480  0.251610  Uiso  0.025330
    O1  O2-  1.0000  0.765980  0.478850  0.227060  Uiso  0.025330
    O1  O2-  1.0000  0.888930  0.575230  0.202520  Uiso  0.025330
    O1  O2-  1.0000  0.515160  0.039150  0.263890  Uiso  0.025330
    O1  O2-  1.0000  0.638110  0.135520  0.239340  Uiso  0.025330
    O1  O2-  1.0000  0.761060  0.231900  0.214790  Uiso  0.025330
    O1  O2-  1.0000  0.884010  0.328270  0.190240  Uiso  0.025330
    O1  O2-  1.0000  0.879090  0.081310  0.177970  Uiso  0.025330
    O1  O2-  1.0000  0.047950  0.888440  0.349800  Uiso  0.025330
    O1  O2-  1.0000  0.170900  0.984810  0.325250  Uiso  0.025330
    O1  O2-  1.0000  0.043030  0.641480  0.337530  Uiso  0.025330
    O1  O2-  1.0000  0.165980  0.737860  0.312980  Uiso  0.025330
    O1  O2-  1.0000  0.288930  0.834230  0.288430  Uiso  0.025330
    O1  O2-  1.0000  0.411880  0.930600  0.263890  Uiso  0.025330
    O1  O2-  1.0000  0.038110  0.394530  0.325250  Uiso  0.025330
    O1  O2-  1.0000  0.161060  0.490900  0.300710  Uiso  0.025330
    O1  O2-  1.0000  0.284020  0.587270  0.276160  Uiso  0.025330
    O1  O2-  1.0000  0.406970  0.683650  0.251610  Uiso  0.025330
    O1  O2-  1.0000  0.529920  0.780020  0.227060  Uiso  0.025330
    O1  O2-  1.0000  0.652870  0.876390  0.202520  Uiso  0.025330
    O1  O2-  1.0000  0.775820  0.972760  0.177970  Uiso  0.025330
    O1  O2-  1.0000  0.033200  0.147570  0.312980  Uiso  0.025330
    O1  O2-  1.0000  0.156150  0.243940  0.288430  Uiso  0.025330
    O1  O2-  1.0000  0.279100  0.340320  0.263890  Uiso  0.025330
    O1  O2-  1.0000  0.402050  0.436690  0.239340  Uiso  0.025330
    O1  O2-  1.0000  0.525000  0.533060  0.214790  Uiso  0.025330
    O1  O2-  1.0000  0.647950  0.629440  0.190240  Uiso  0.025330
    O1  O2-  1.0000  0.770900  0.725810  0.165700  Uiso  0.025330
    O1  O2-  1.0000  0.893850  0.822180  0.141150  Uiso  0.025330
    O1  O2-  1.0000  0.274180  0.093360  0.251610  Uiso  0.025330
    O1  O2-  1.0000  0.397130  0.189730  0.227060  Uiso  0.025330
    O1  O2-  1.0000  0.520080  0.286110  0.202520  Uiso  0.025330
    O1  O2-  1.0000  0.643030  0.382480  0.177970  Uiso  0.025330
    O1  O2-  1.0000  0.765980  0.478850  0.153420  Uiso  0.025330
    O1  O2-  1.0000  0.888930  0.575230  0.128870  Uiso  0.025330
    O1  O2-  1.0000  0.515160  0.039150  0.190240  Uiso  0.025330
    O1  O2-  1.0000  0.638110  0.135520  0.165700  Uiso  0.025330
    O1  O2-  1.0000  0.761060  0.231900  0.141150  Uiso  0.025330
    O1  O2-  1.0000  0.884010  0.328270  0.116600  Uiso  0.025330
    O1  O2-  1.0000  0.879090  0.081310  0.104330  Uiso  0.025330
    O1  O2-  1.0000  0.047950  0.888440  0.276160  Uiso  0.025330
    O1  O2-  1.0000  0.170900  0.984810  0.251610  Uiso  0.025330
    O1  O2-  1.0000  0.043030  0.641480  0.263890  Uiso  0.025330
    O1  O2-  1.0000  0.165980  0.737860  0.239340  Uiso  0.025330
    O1  O2-  1.0000  0.288930  0.834230  0.214790  Uiso  0.025330
    O1  O2-  1.0000  0.411880  0.930600  0.190240  Uiso  0.025330
    O1  O2-  1.0000  0.038110  0.394530  0.251610  Uiso  0.025330
    O1  O2-  1.0000  0.161060  0.490900  0.227060  Uiso  0.025330
    O1  O2-  1.0000  0.284020  0.587270  0.202520  Uiso  0.025330
    O1  O2-  1.0000  0.406970  0.683650  0.177970  Uiso  0.025330
    O1  O2-  1.0000  0.529920  0.780020  0.153420  Uiso  0.025330
    O1  O2-  1.0000  0.652870  0.876390  0.128870  Uiso  0.025330
    O1  O2-  1.0000  0.775820  0.972760  0.104330  Uiso  0.025330
    O1  O2-  1.0000  0.033200  0.147570  0.239340  Uiso  0.025330
    O1  O2-  1.0000  0.156150  0.243940  0.214790  Uiso  0.025330
    O1  O2-  1.0000  0.279100  0.340320  0.190240  Uiso  0.025330
    O1  O2-  1.0000  0.402050  0.436690  0.165700  Uiso  0.025330
    O1  O2-  1.0000  0.525000  0.533060  0.141150  Uiso  0.025330
    O1  O2-  1.0000  0.647950  0.629440  0.116600  Uiso  0.025330
    O1  O2-  1.0000  0.770900  0.725810  0.092050  Uiso  0.025330
    O1  O2-  1.0000  0.893850  0.822180  0.067510  Uiso  0.025330
    O1  O2-  1.0000  0.274180  0.093360  0.177970  Uiso  0.025330
    O1  O2-  1.0000  0.397130  0.189730  0.153420  Uiso  0.025330
    O1  O2-  1.0000  0.520080  0.286110  0.128870  Uiso  0.025330
    O1  O2-  1.0000  0.643030  0.382480  0.104330  Uiso  0.025330
    O1  O2-  1.0000  0.765980  0.478850  0.079780  Uiso  0.025330
    O1  O2-  1.0000  0.888930  0.575230  0.055230  Uiso  0.025330
    O1  O2-  1.0000  0.515160  0.039150  0.116600  Uiso  0.025330
    O1  O2-  1.0000  0.638110  0.135520  0.092050  Uiso  0.025330
    O1  O2-  1.0000  0.761060  0.231900  0.067510  Uiso  0.025330
    O1  O2-  1.0000  0.884010  0.328270  0.042960  Uiso  0.025330
    O1  O2-  1.0000  0.879090  0.081310  0.030680  Uiso  0.025330
    O1  O2-  1.0000  0.047950  0.888440  0.202520  Uiso  0.025330
    O1  O2-  1.0000  0.170900  0.984810  0.177970  Uiso  0.025330
    O1  O2-  1.0000  0.043030  0.641480  0.190240  Uiso  0.025330
    O1  O2-  1.0000  0.165980  0.737860  0.165700  Uiso  0.025330
    O1  O2-  1.0000  0.288930  0.834230  0.141150  Uiso  0.025330
    O1  O2-  1.0000  0.411880  0.930600  0.116600  Uiso  0.025330
    O1  O2-  1.0000  0.038110  0.394530  0.177970  Uiso  0.025330
    O1  O2-  1.0000  0.161060  0.490900  0.153420  Uiso  0.025330
    O1  O2-  1.0000  0.284020  0.587270  0.128870  Uiso  0.025330
    O1  O2-  1.0000  0.406970  0.683650  0.104330  Uiso  0.025330
    O1  O2-  1.0000  0.529920  0.780020  0.079780  Uiso  0.025330
    O1  O2-  1.0000  0.652870  0.876390  0.055230  Uiso  0.025330
    O1  O2-  1.0000  0.775820  0.972760  0.030680  Uiso  0.025330
    O1  O2-  1.0000  0.033200  0.147570  0.165700  Uiso  0.025330
    O1  O2-  1.0000  0.156150  0.243940  0.141150  Uiso  0.025330
    O1  O2-  1.0000  0.279100  0.340320  0.116600  Uiso  0.025330
    O1  O2-  1.0000  0.402050  0.436690  0.092050  Uiso  0.025330
    O1  O2-  1.0000  0.525000  0.533060  0.067510  Uiso  0.025330
    O1  O2-  1.0000  0.647950  0.629440  0.042960  Uiso  0.025330
    O1  O2-  1.0000  0.770900  0.725810  0.018410  Uiso  0.025330
    O1  O2-  1.0000  0.274180  0.093360  0.104330  Uiso  0.025330
    O1  O2-  1.0000  0.397130  0.189730  0.079780  Uiso  0.025330
    O1  O2-  1.0000  0.520080  0.286110  0.055230  Uiso  0.025330
    O1  O2-  1.0000  0.643030  0.382480  0.030680  Uiso  0.025330
    O1  O2-  1.0000  0.765980  0.478850  0.006140  Uiso  0.025330
    O1  O2-  1.0000  0.515160  0.039150  0.042960  Uiso  0.025330
    O1  O2-  1.0000  0.638110  0.135520  0.018410  Uiso  0.025330
    O1  O2-  1.0000  0.047950  0.888440  0.128870  Uiso  0.025330
    O1  O2-  1.0000  0.170900  0.984810  0.104330  Uiso  0.025330
    O1  O2-  1.0000  0.043030  0.641480  0.116600  Uiso  0.025330
    O1  O2-  1.0000  0.165980  0.737860  0.092050  Uiso  0.025330
    O1  O2-  1.0000  0.288930  0.834230  0.067510  Uiso  0.025330
    O1  O2-  1.0000  0.411880  0.930600  0.042960  Uiso  0.025330
    O1  O2-  1.0000  0.038110  0.394530  0.104330  Uiso  0.025330
    O1  O2-  1.0000  0.161060  0.490900  0.079780  Uiso  0.025330
    O1  O2-  1.0000  0.284020  0.587270  0.055230  Uiso  0.025330
    O1  O2-  1.0000  0.406970  0.683650  0.030680  Uiso  0.025330
    O1  O2-  1.0000  0.529920  0.780020  0.006140  Uiso  0.025330
    O1  O2-  1.0000  0.033200  0.147570  0.092050  Uiso  0.025330
    O1  O2-  1.0000  0.156150  0.243940  0.067510  Uiso  0.025330
    O1  O2-  1.0000  0.279100  0.340320  0.042960  Uiso  0.025330
    O1  O2-  1.0000  0.402050  0.436690  0.018410  Uiso  0.025330
    O1  O2-  1.0000  0.274180  0.093360  0.030680  Uiso  0.025330
    O1  O2-  1.0000  0.397130  0.189730  0.006140  Uiso  0.025330
    O1  O2-  1.0000  0.047950  0.888440  0.055230  Uiso  0.025330
    O1  O2-  1.0000  0.170900  0.984810  0.030680  Uiso  0.025330
    O1  O2-  1.0000  0.043030  0.641480  0.042960  Uiso  0.025330
    O1  O2-  1.0000  0.165980  0.737860  0.018410  Uiso  0.025330
    O1  O2-  1.0000  0.038110  0.394530  0.030680  Uiso  0.025330
    O1  O2-  1.0000  0.161060  0.490900  0.006140  Uiso  0.025330
    O1  O2-  1.0000  0.033200  0.147570  0.018410  Uiso  0.025330
    O1  O2-  1.0000  0.999590  0.054210  0.994170  Uiso  0.025330
    O1  O2-  1.0000  0.896310  0.945660  0.994170  Uiso  0.025330
    O1  O2-  1.0000  0.891390  0.698700  0.981900  Uiso  0.025330
    O1  O2-  1.0000  0.763520  0.355380  0.994170  Uiso  0.025330
    O1  O2-  1.0000  0.886470  0.451750  0.969630  Uiso  0.025330
    O1  O2-  1.0000  0.758600  0.108420  0.981900  Uiso  0.025330
    O1  O2-  1.0000  0.881550  0.204790  0.957350  Uiso  0.025330
    O1  O2-  1.0000  0.999590  0.054210  0.920530  Uiso  0.025330
    O1  O2-  1.0000  0.655320  0.999870  0.981900  Uiso  0.025330
    O1  O2-  1.0000  0.527460  0.656540  0.994170  Uiso  0.025330
    O1  O2-  1.0000  0.650410  0.752910  0.969630  Uiso  0.025330
    O1  O2-  1.0000  0.773360  0.849290  0.945080  Uiso  0.025330
    O1  O2-  1.0000  0.896310  0.945660  0.920530  Uiso  0.025330
    O1  O2-  1.0000  0.522540  0.409590  0.981900  Uiso  0.025330
    O1  O2-  1.0000  0.645490  0.505960  0.957350  Uiso  0.025330
    O1  O2-  1.0000  0.768440  0.602330  0.932810  Uiso  0.025330
    O1  O2-  1.0000  0.891390  0.698700  0.908260  Uiso  0.025330
    O1  O2-  1.0000  0.394670  0.066260  0.994170  Uiso  0.025330
    O1  O2-  1.0000  0.517620  0.162630  0.969630  Uiso  0.025330
    O1  O2-  1.0000  0.640570  0.259000  0.945080  Uiso  0.025330
    O1  O2-  1.0000  0.763520  0.355380  0.920530  Uiso  0.025330
    O1  O2-  1.0000  0.886470  0.451750  0.895980  Uiso  0.025330
    O1  O2-  1.0000  0.635650  0.012050  0.932810  Uiso  0.025330
    O1  O2-  1.0000  0.758600  0.108420  0.908260  Uiso  0.025330
    O1  O2-  1.0000  0.881550  0.204790  0.883710  Uiso  0.025330
    O1  O2-  1.0000  0.999590  0.054210  0.846890  Uiso  0.025330
    O1  O2-  1.0000  0.291390  0.957710  0.994170  Uiso  0.025330
    O1  O2-  1.0000  0.286470  0.710750  0.981900  Uiso  0.025330
    O1  O2-  1.0000  0.409420  0.807120  0.957350  Uiso  0.025330
    O1  O2-  1.0000  0.532370  0.903500  0.932810  Uiso  0.025330
    O1  O2-  1.0000  0.655320  0.999870  0.908260  Uiso  0.025330
    O1  O2-  1.0000  0.158610  0.367420  0.994170  Uiso  0.025330
    O1  O2-  1.0000  0.281560  0.463790  0.969630  Uiso  0.025330
    O1  O2-  1.0000  0.404510  0.560170  0.945080  Uiso  0.025330
    O1  O2-  1.0000  0.527460  0.656540  0.920530  Uiso  0.025330
    O1  O2-  1.0000  0.650410  0.752910  0.895980  Uiso  0.025330
    O1  O2-  1.0000  0.773360  0.849290  0.871440  Uiso  0.025330
    O1  O2-  1.0000  0.896310  0.945660  0.846890  Uiso  0.025330
    O1  O2-  1.0000  0.153690  0.120470  0.981900  Uiso  0.025330
    O1  O2-  1.0000  0.276640  0.216840  0.957350  Uiso  0.025330
    O1  O2-  1.0000  0.399590  0.313210  0.932810  Uiso  0.025330
    O1  O2-  1.0000  0.522540  0.409590  0.908260  Uiso  0.025330
    O1  O2-  1.0000  0.645490  0.505960  0.883710  Uiso  0.025330
    O1  O2-  1.0000  0.768440  0.602330  0.859160  Uiso  0.025330
    O1  O2-  1.0000  0.891390  0.698700  0.834620  Uiso  0.025330
    O1  O2-  1.0000  0.394670  0.066260  0.920530  Uiso  0.025330
    O1  O2-  1.0000  0.517620  0.162630  0.895980  Uiso  0.025330
    O1  O2-  1.0000  0.640570  0.259000  0.871440  Uiso  0.025330
    O1  O2-  1.0000  0.763520  0.355380  0.846890  Uiso  0.025330
    O1  O2-  1.0000  0.886470  0.451750  0.822340  Uiso  0.025330
    O1  O2-  1.0000  0.635650  0.012050  0.859160  Uiso  0.025330
    O1  O2-  1.0000  0.758600  0.108420  0.834620  Uiso  0.025330
    O1  O2-  1.0000  0.881550  0.204790  0.810070  Uiso  0.025330
    O1  O2-  1.0000  0.999590  0.054210  0.773250  Uiso  0.025330
    O1  O2-  1.0000  0.045490  0.764960  0.969630  Uiso  0.025330
    O1  O2-  1.0000  0.168440  0.861330  0.945080  Uiso  0.025330
    O1  O2-  1.0000  0.291390  0.957710  0.920530  Uiso  0.025330
    O1  O2-  1.0000  0.040570  0.518000  0.957350  Uiso  0.025330
    O1  O2-  1.0000  0.163520  0.614380  0.932810  Uiso  0.025330
    O1  O2-  1.0000  0.286470  0.710750  0.908260  Uiso  0.025330
    O1  O2-  1.0000  0.409420  0.807120  0.883710  Uiso  0.025330
    O1  O2-  1.0000  0.532370  0.903500  0.859160  Uiso  0.025330
    O1  O2-  1.0000  0.655320  0.999870  0.834620  Uiso  0.025330
    O1  O2-  1.0000  0.035660  0.271050  0.945080  Uiso  0.025330
    O1  O2-  1.0000  0.158610  0.367420  0.920530  Uiso  0.025330
    O1  O2-  1.0000  0.281560  0.463790  0.895980  Uiso  0.025330
    O1  O2-  1.0000  0.404510  0.560170  0.871440  Uiso  0.025330
    O1  O2-  1.0000  0.527460  0.656540  0.846890  Uiso  0.025330
    O1  O2-  1.0000  0.650410  0.752910  0.822340  Uiso  0.025330
    O1  O2-  1.0000  0.773360  0.849290  0.797790  Uiso  0.025330
    O1  O2-  1.0000  0.896310  0.945660  0.773250  Uiso  0.025330
    O1  O2-  1.0000  0.030740  0.024090  0.932810  Uiso  0.025330
    O1  O2-  1.0000  0.153690  0.120470  0.908260  Uiso  0.025330
    O1  O2-  1.0000  0.276640  0.216840  0.883710  Uiso  0.025330
    O1  O2-  1.0000  0.399590  0.313210  0.859160  Uiso  0.025330
    O1  O2-  1.0000  0.522540  0.409590  0.834620  Uiso  0.025330
    O1  O2-  1.0000  0.645490  0.505960  0.810070  Uiso  0.025330
    O1  O2-  1.0000  0.768440  0.602330  0.785520  Uiso  0.025330
    O1  O2-  1.0000  0.891390  0.698700  0.760970  Uiso  0.025330
    O1  O2-  1.0000  0.394670  0.066260  0.846890  Uiso  0.025330
    O1  O2-  1.0000  0.517620  0.162630  0.822340  Uiso  0.025330
    O1  O2-  1.0000  0.640570  0.259000  0.797790  Uiso  0.025330
    O1  O2-  1.0000  0.763520  0.355380  0.773250  Uiso  0.025330
    O1  O2-  1.0000  0.886470  0.451750  0.748700  Uiso  0.025330
    O1  O2-  1.0000  0.635650  0.012050  0.785520  Uiso  0.025330
    O1  O2-  1.0000  0.758600  0.108420  0.760970  Uiso  0.025330
    O1  O2-  1.0000  0.881550  0.204790  0.736430  Uiso  0.025330
    O1  O2-  1.0000  0.999590  0.054210  0.699600  Uiso  0.025330
    O1  O2-  1.0000  0.045490  0.764960  0.895980  Uiso  0.025330
    O1  O2-  1.0000  0.168440  0.861330  0.871440  Uiso  0.025330
    O1  O2-  1.0000  0.291390  0.957710  0.846890  Uiso  0.025330
    O1  O2-  1.0000  0.040570  0.518000  0.883710  Uiso  0.025330
    O1  O2-  1.0000  0.163520  0.614380  0.859160  Uiso  0.025330
    O1  O2-  1.0000  0.286470  0.710750  0.834620  Uiso  0.025330
    O1  O2-  1.0000  0.409420  0.807120  0.810070  Uiso  0.025330
    O1  O2-  1.0000  0.532370  0.903500  0.785520  Uiso  0.025330
    O1  O2-  1.0000  0.655320  0.999870  0.760970  Uiso  0.025330
    O1  O2-  1.0000  0.035660  0.271050  0.871440  Uiso  0.025330
    O1  O2-  1.0000  0.158610  0.367420  0.846890  Uiso  0.025330
    O1  O2-  1.0000  0.281560  0.463790  0.822340  Uiso  0.025330
    O1  O2-  1.0000  0.404510  0.560170  0.797790  Uiso  0.025330
    O1  O2-  1.0000  0.527460  0.656540  0.773250  Uiso  0.025330
    O1  O2-  1.0000  0.650410  0.752910  0.748700  Uiso  0.025330
    O1  O2-  1.0000  0.773360  0.849290  0.724150  Uiso  0.025330
    O1  O2-  1.0000  0.896310  0.945660  0.699600  Uiso  0.025330
    O1  O2-  1.0000  0.030740  0.024090  0.859160  Uiso  0.025330
    O1  O2-  1.0000  0.153690  0.120470  0.834620  Uiso  0.025330
    O1  O2-  1.0000  0.276640  0.216840  0.810070  Uiso  0.025330
    O1  O2-  1.0000  0.399590  0.313210  0.785520  Uiso  0.025330
    O1  O2-  1.0000  0.522540  0.409590  0.760970  Uiso  0.025330
    O1  O2-  1.0000  0.645490  0.505960  0.736430  Uiso  0.025330
    O1  O2-  1.0000  0.768440  0.602330  0.711880  Uiso  0.025330
    O1  O2-  1.0000  0.891390  0.698700  0.687330  Uiso  0.025330
    O1  O2-  1.0000  0.394670  0.066260  0.773250  Uiso  0.025330
    O1  O2-  1.0000  0.517620  0.162630  0.748700  Uiso  0.025330
    O1  O2-  1.0000  0.640570  0.259000  0.724150  Uiso  0.025330
    O1  O2-  1.0000  0.763520  0.355380  0.699600  Uiso  0.025330
    O1  O2-  1.0000  0.886470  0.451750  0.675060  Uiso  0.025330
    O1  O2-  1.0000  0.635650  0.012050  0.711880  Uiso  0.025330
    O1  O2-  1.0000  0.758600  0.108420  0.687330  Uiso  0.025330
    O1  O2-  1.0000  0.881550  0.204790  0.662780  Uiso  0.025330
    O1  O2-  1.0000  0.999590  0.054210  0.625960  Uiso  0.025330
    O1  O2-  1.0000  0.045490  0.764960  0.822340  Uiso  0.025330
    O1  O2-  1.0000  0.168440  0.861330  0.797790  Uiso  0.025330
    O1  O2-  1.0000  0.291390  0.957710  0.773250  Uiso  0.025330
    O1  O2-  1.0000  0.040570  0.518000  0.810070  Uiso  0.025330
    O1  O2-  1.0000  0.163520  0.614380  0.785520  Uiso  0.025330
    O1  O2-  1.0000  0.286470  0.710750  0.760970  Uiso  0.025330
    O1  O2-  1.0000  0.409420  0.807120  0.736430  Uiso  0.025330
    O1  O2-  1.0000  0.532370  0.903500  0.711880  Uiso  0.025330
    O1  O2-  1.0000  0.655320  0.999870  0.687330  Uiso  0.025330
    O1  O2-  1.0000  0.035660  0.271050  0.797790  Uiso  0.025330
    O1  O2-  1.0000  0.158610  0.367420  0.773250  Uiso  0.025330
    O1  O2-  1.0000  0.281560  0.463790  0.748700  Uiso  0.025330
    O1  O2-  1.0000  0.404510  0.560170  0.724150  Uiso  0.025330
    O1  O2-  1.0000  0.527460  0.656540  0.699600  Uiso  0.025330
    O1  O2-  1.0000  0.650410  0.752910  0.675060  Uiso  0.025330
    O1  O2-  1.0000  0.773360  0.849290  0.650510  Uiso  0.025330
    O1  O2-  1.0000  0.896310  0.945660  0.625960  Uiso  0.025330
    O1  O2-  1.0000  0.030740  0.024090  0.785520  Uiso  0.025330
    O1  O2-  1.0000  0.153690  0.120470  0.760970  Uiso  0.025330
    O1  O2-  1.0000  0.276640  0.216840  0.736430  Uiso  0.025330
    O1  O2-  1.0000  0.399590  0.313210  0.711880  Uiso  0.025330
    O1  O2-  1.0000  0.522540  0.409590  0.687330  Uiso  0.025330
    O1  O2-  1.0000  0.645490  0.505960  0.662780  Uiso  0.025330
    O1  O2-  1.0000  0.768440  0.602330  0.638240  Uiso  0.025330
    O1  O2-  1.0000  0.891390  0.698700  0.613690  Uiso  0.025330
    O1  O2-  1.0000  0.394670  0.066260  0.699600  Uiso  0.025330
    O1  O2-  1.0000  0.517620  0.162630  0.675060  Uiso  0.025330
    O1  O2-  1.0000  0.640570  0.259000  0.650510  Uiso  0.025330
    O1  O2-  1.0000  0.763520  0.355380  0.625960  Uiso  0.025330
    O1  O2-  1.0000  0.886470  0.451750  0.601410  Uiso  0.025330
    O1  O2-  1.0000  0.635650  0.012050  0.638240  Uiso  0.025330
    O1  O2-  1.0000  0.758600  0.108420  0.613690  Uiso  0.025330
    O1  O2-  1.0000  0.881550  0.204790  0.589140  Uiso  0.025330
    O1  O2-  1.0000  0.999590  0.054210  0.552320  Uiso  0.025330
    O1  O2-  1.0000  0.045490  0.764960  0.748700  Uiso  0.025330
    O1  O2-  1.0000  0.168440  0.861330  0.724150  Uiso  0.025330
    O1  O2-  1.0000  0.291390  0.957710  0.699600  Uiso  0.025330
    O1  O2-  1.0000  0.040570  0.518000  0.736430  Uiso  0.025330
    O1  O2-  1.0000  0.163520  0.614380  0.711880  Uiso  0.025330
    O1  O2-  1.0000  0.286470  0.710750  0.687330  Uiso  0.025330
    O1  O2-  1.0000  0.409420  0.807120  0.662780  Uiso  0.025330
    O1  O2-  1.0000  0.532370  0.903500  0.638240  Uiso  0.025330
    O1  O2-  1.0000  0.655320  0.999870  0.613690  Uiso  0.025330
    O1  O2-  1.0000  0.035660  0.271050  0.724150  Uiso  0.025330
    O1  O2-  1.0000  0.158610  0.367420  0.699600  Uiso  0.025330
    O1  O2-  1.0000  0.281560  0.463790  0.675060  Uiso  0.025330
    O1  O2-  1.0000  0.404510  0.560170  0.650510  Uiso  0.025330
    O1  O2-  1.0000  0.527460  0.656540  0.625960  Uiso  0.025330
    O1  O2-  1.0000  0.650410  0.752910  0.601410  Uiso  0.025330
    O1  O2-  1.0000  0.773360  0.849290  0.576870  Uiso  0.025330
    O1  O2-  1.0000  0.896310  0.945660  0.552320  Uiso  0.025330
    O1  O2-  1.0000  0.030740  0.024090  0.711880  Uiso  0.025330
    O1  O2-  1.0000  0.153690  0.120470  0.687330  Uiso  0.025330
    O1  O2-  1.0000  0.276640  0.216840  0.662780  Uiso  0.025330
    O1  O2-  1.0000  0.399590  0.313210  0.638240  Uiso  0.025330
    O1  O2-  1.0000  0.522540  0.409590  0.613690  Uiso  0.025330
    O1  O2-  1.0000  0.645490  0.505960  0.589140  Uiso  0.025330
    O1  O2-  1.0000  0.768440  0.602330  0.564590  Uiso  0.025330
    O1  O2-  1.0000  0.891390  0.698700  0.540050  Uiso  0.025330
    O1  O2-  1.0000  0.394670  0.066260  0.625960  Uiso  0.025330
    O1  O2-  1.0000  0.517620  0.162630  0.601410  Uiso  0.025330
    O1  O2-  1.0000  0.640570  0.259000  0.576870  Uiso  0.025330
    O1  O2-  1.0000  0.763520  0.355380  0.552320  Uiso  0.025330
    O1  O2-  1.0000  0.886470  0.451750  0.527770  Uiso  0.025330
    O1  O2-  1.0000  0.635650  0.012050  0.564590  Uiso  0.025330
    O1  O2-  1.0000  0.758600  0.108420  0.540050  Uiso  0.025330
    O1  O2-  1.0000  0.881550  0.204790  0.515500  Uiso  0.025330
    O1  O2-  1.0000  0.999590  0.054210  0.478680  Uiso  0.025330
    O1  O2-  1.0000  0.045490  0.764960  0.675060  Uiso  0.025330
    O1  O2-  1.0000  0.168440  0.861330  0.650510  Uiso  0.025330
    O1  O2-  1.0000  0.291390  0.957710  0.625960  Uiso  0.025330
    O1  O2-  1.0000  0.040570  0.518000  0.662780  Uiso  0.025330
    O1  O2-  1.0000  0.163520  0.614380  0.638240  Uiso  0.025330
    O1  O2-  1.0000  0.286470  0.710750  0.613690  Uiso  0.025330
    O1  O2-  1.0000  0.409420  0.807120  0.589140  Uiso  0.025330
    O1  O2-  1.0000  0.532370  0.903500  0.564590  Uiso  0.025330
    O1  O2-  1.0000  0.655320  0.999870  0.540050  Uiso  0.025330
    O1  O2-  1.0000  0.035660  0.271050  0.650510  Uiso  0.025330
    O1  O2-  1.0000  0.158610  0.367420  0.625960  Uiso  0.025330
    O1  O2-  1.0000  0.281560  0.463790  0.601410  Uiso  0.025330
    O1  O2-  1.0000  0.404510  0.560170  0.576870  Uiso  0.025330
    O1  O2-  1.0000  0.527460  0.656540  0.552320  Uiso  0.025330
    O1  O2-  1.0000  0.650410  0.752910  0.527770  Uiso  0.025330
    O1  O2-  1.0000  0.773360  0.849290  0.503220  Uiso  0.025330
    O1  O2-  1.0000  0.896310  0.945660  0.478680  Uiso  0.025330
    O1  O2-  1.0000  0.030740  0.024090  0.638240  Uiso  0.025330
    O1  O2-  1.0000  0.153690  0.120470  0.613690  Uiso  0.025330
    O1  O2-  1.0000  0.276640  0.216840  0.589140  Uiso  0.025330
    O1  O2-  1.0000  0.399590  0.313210  0.564590  Uiso  0.025330
    O1  O2-  1.0000  0.522540  0.409590  0.540050  Uiso  0.025330
    O1  O2-  1.0000  0.645490  0.505960  0.515500  Uiso  0.025330
    O1  O2-  1.0000  0.768440  0.602330  0.490950  Uiso  0.025330
    O1  O2-  1.0000  0.891390  0.698700  0.466400  Uiso  0.025330
    O1  O2-  1.0000  0.394670  0.066260  0.552320  Uiso  0.025330
    O1  O2-  1.0000  0.517620  0.162630  0.527770  Uiso  0.025330
    O1  O2-  1.0000  0.640570  0.259000  0.503220  Uiso  0.025330
    O1  O2-  1.0000  0.763520  0.355380  0.478680  Uiso  0.025330
    O1  O2-  1.0000  0.886470  0.451750  0.454130  Uiso  0.025330
    O1  O2-  1.0000  0.635650  0.012050  0.490950  Uiso  0.025330
    O1  O2-  1.0000  0.758600  0.108420  0.466400  Uiso  0.025330
    O1  O2-  1.0000  0.881550  0.204790  0.441860  Uiso  0.025330
    O1  O2-  1.0000  0.999590  0.054210  0.405030  Uiso  0.025330
    O1  O2-  1.0000  0.045490  0.764960  0.601410  Uiso  0.025330
    O1  O2-  1.0000  0.168440  0.861330  0.576870  Uiso  0.025330
    O1  O2-  1.0000  0.291390  0.957710  0.552320  Uiso  0.025330
    O1  O2-  1.0000  0.040570  0.518000  0.589140  Uiso  0.025330
    O1  O2-  1.0000  0.163520  0.614380  0.564590  Uiso  0.025330
    O1  O2-  1.0000  0.286470  0.710750  0.540050  Uiso  0.025330
    O1  O2-  1.0000  0.409420  0.807120  0.515500  Uiso  0.025330
    O1  O2-  1.0000  0.532370  0.903500  0.490950  Uiso  0.025330
    O1  O2-  1.0000  0.655320  0.999870  0.466400  Uiso  0.025330
    O1  O2-  1.0000  0.035660  0.271050  0.576870  Uiso  0.025330
    O1  O2-  1.0000  0.158610  0.367420  0.552320  Uiso  0.025330
    O1  O2-  1.0000  0.281560  0.463790  0.527770  Uiso  0.025330
    O1  O2-  1.0000  0.404510  0.560170  0.503220  Uiso  0.025330
    O1  O2-  1.0000  0.527460  0.656540  0.478680  Uiso  0.025330
    O1  O2-  1.0000  0.650410  0.752910  0.454130  Uiso  0.025330
    O1  O2-  1.0000  0.773360  0.849290  0.429580  Uiso  0.025330
    O1  O2-  1.0000  0.896310  0.945660  0.405030  Uiso  0.025330
    O1  O2-  1.0000  0.030740  0.024090  0.564590  Uiso  0.025330
    O1  O2-  1.0000  0.153690  0.120470  0.540050  Uiso  0.025330
    O1  O2-  1.0000  0.276640  0.216840  0.515500  Uiso  0.025330
    O1  O2-  1.0000  0.399590  0.313210  0.490950  Uiso  0.025330
    O1  O2-  1.0000  0.522540  0.409590  0.466400  Uiso  0.025330
    O1  O2-  1.0000  0.645490  0.505960  0.441860  Uiso  0.025330
    O1  O2-  1.0000  0.768440  0.602330  0.417310  Uiso  0.025330
    O1  O2-  1.0000  0.891390  0.698700  0.392760  Uiso  0.025330
    O1  O2-  1.0000  0.394670  0.066260  0.478680  Uiso  0.025330
    O1  O2-  1.0000  0.517620  0.162630  0.454130  Uiso  0.025330
    O1  O2-  1.0000  0.640570  0.259000  0.429580  Uiso  0.025330
    O1  O2-  1.0000  0.763520  0.355380  0.405030  Uiso  0.025330
    O1  O2-  1.0000  0.886470  0.451750  0.380490  Uiso  0.025330
    O1  O2-  1.0000  0.635650  0.012050  0.417310  Uiso  0.025330
    O1  O2-  1.0000  0.758600  0.108420  0.392760  Uiso  0.025330
    O1  O2-  1.0000  0.881550  0.204790  0.368210  Uiso  0.025330
    O1  O2-  1.0000  0.999590  0.054210  0.331390  Uiso  0.025330
    O1  O2-  1.0000  0.045490  0.764960  0.527770  Uiso  0.025330
    O1  O2-  1.0000  0.168440  0.861330  0.503220  Uiso  0.025330
    O1  O2-  1.0000  0.291390  0.957710  0.478680  Uiso  0.025330
    O1  O2-  1.0000  0.040570  0.518000  0.515500  Uiso  0.025330
    O1  O2-  1.0000  0.163520  0.614380  0.490950  Uiso  0.025330
    O1  O2-  1.0000  0.286470  0.710750  0.466400  Uiso  0.025330
    O1  O2-  1.0000  0.409420  0.807120  0.441860  Uiso  0.025330
    O1  O2-  1.0000  0.532370  0.903500  0.417310  Uiso  0.025330
    O1  O2-  1.0000  0.655320  0.999870  0.392760  Uiso  0.025330
    O1  O2-  1.0000  0.035660  0.271050  0.503220  Uiso  0.025330
    O1  O2-  1.0000  0.158610  0.367420  0.478680  Uiso  0.025330
    O1  O2-  1.0000  0.281560  0.463790  0.454130  Uiso  0.025330
    O1  O2-  1.0000  0.404510  0.560170  0.429580  Uiso  0.025330
    O1  O2-  1.0000  0.527460  0.656540  0.405030  Uiso  0.025330
    O1  O2-  1.0000  0.650410  0.752910  0.380490  Uiso  0.025330
    O1  O2-  1.0000  0.773360  0.849290  0.355940  Uiso  0.025330
    O1  O2-  1.0000  0.896310  0.945660  0.331390  Uiso  0.025330
    O1  O2-  1.0000  0.030740  0.024090  0.490950  Uiso  0.025330
    O1  O2-  1.0000  0.153690  0.120470  0.466400  Uiso  0.025330
    O1  O2-  1.0000  0.276640  0.216840  0.441860  Uiso  0.025330
    O1  O2-  1.0000  0.399590  0.313210  0.417310  Uiso  0.025330
    O1  O2-  1.0000  0.522540  0.409590  0.392760  Uiso  0.025330
    O1  O2-  1.0000  0.645490  0.505960  0.368210  Uiso  0.025330
    O1  O2-  1.0000  0.768440  0.602330  0.343670  Uiso  0.025330
    O1  O2-  1.0000  0.891390  0.698700  0.319120  Uiso  0.025330
    O1  O2-  1.0000  0.394670  0.066260  0.405030  Uiso  0.025330
    O1  O2-  1.0000  0.517620  0.162630  0.380490  Uiso  0.025330
    O1  O2-  1.0000  0.640570  0.259000  0.355940  Uiso  0.025330
    O1  O2-  1.0000  0.763520  0.355380  0.331390  Uiso  0.025330
    O1  O2-  1.0000  0.886470  0.451750  0.306840  Uiso  0.025330
    O1  O2-  1.0000  0.635650  0.012050  0.343670  Uiso  0.025330
    O1  O2-  1.0000  0.758600  0.108420  0.319120  Uiso  0.025330
    O1  O2-  1.0000  0.881550  0.204790  0.294570  Uiso  0.025330
    O1  O2-  1.0000  0.999590  0.054210  0.257750  Uiso  0.025330
    O1  O2-  1.0000  0.045490  0.764960  0.454130  Uiso  0.025330
    O1  O2-  1.0000  0.168440  0.861330  0.429580  Uiso  0.025330
    O1  O2-  1.0000  0.291390  0.957710  0.405030  Uiso  0.025330
    O1  O2-  1.0000  0.040570  0.518000  0.441860  Uiso  0.025330
    O1  O2-  1.0000  0.163520  0.614380  0.417310  Uiso  0.025330
    O1  O2-  1.0000  0.286470  0.710750  0.392760  Uiso  0.025330
    O1  O2-  1.0000  0.409420  0.807120  0.368210  Uiso  0.025330
    O1  O2-  1.0000  0.532370  0.903500  0.343670  Uiso  0.025330
    O1  O2-  1.0000  0.655320  0.999870  0.319120  Uiso  0.025330
    O1  O2-  1.0000  0.035660  0.271050  0.429580  Uiso  0.025330
    O1  O2-  1.0000  0.158610  0.367420  0.405030  Uiso  0.025330
    O1  O2-  1.0000  0.281560  0.463790  0.380490  Uiso  0.025330
    O1  O2-  1.0000  0.404510  0.560170  0.355940  Uiso  0.025330
    O1  O2-  1.0000  0.527460  0.656540  0.331390  Uiso  0.025330
    O1  O2-  1.0000  0.650410  0.752910  0.306840  Uiso  0.025330
    O1  O2-  1.0000  0.773360  0.849290  0.282300  Uiso  0.025330
    O1  O2-  1.0000  0.896310  0.945660  0.257750  Uiso  0.025330
    O1  O2-  1.0000  0.030740  0.024090  0.417310  Uiso  0.025330
    O1  O2-  1.0000  0.153690  0.120470  0.392760  Uiso  0.025330
    O1  O2-  1.0000  0.276640  0.216840  0.368210  Uiso  0.025330
    O1  O2-  1.0000  0.399590  0.313210  0.343670  Uiso  0.025330
    O1  O2-  1.0000  0.522540  0.409590  0.319120  Uiso  0.025330
    O1  O2-  1.0000  0.645490  0.505960  0.294570  Uiso  0.025330
    O1  O2-  1.0000  0.768440  0.602330  0.270020  Uiso  0.025330
    O1  O2-  1.0000  0.891390  0.698700  0.245480  Uiso  0.025330
    O1  O2-  1.0000  0.394670  0.066260  0.331390  Uiso  0.025330
    O1  O2-  1.0000  0.517620  0.162630  0.306840  Uiso  0.025330
    O1  O2-  1.0000  0.640570  0.259000  0.282300  Uiso  0.025330
    O1  O2-  1.0000  0.763520  0.355380  0.257750  Uiso  0.025330
    O1  O2-  1.0000  0.886470  0.451750  0.233200  Uiso  0.025330
    O1  O2-  1.0000  0.635650  0.012050  0.270020  Uiso  0.025330
    O1  O2-  1.0000  0.758600  0.108420  0.245480  Uiso  0.025330
    O1  O2-  1.0000  0.881550  0.204790  0.220930  Uiso  0.025330
    O1  O2-  1.0000  0.999590  0.054210  0.184110  Uiso  0.025330
    O1  O2-  1.0000  0.045490  0.764960  0.380490  Uiso  0.025330
    O1  O2-  1.0000  0.168440  0.861330  0.355940  Uiso  0.025330
    O1  O2-  1.0000  0.291390  0.957710  0.331390  Uiso  0.025330
    O1  O2-  1.0000  0.040570  0.518000  0.368210  Uiso  0.025330
    O1  O2-  1.0000  0.163520  0.614380  0.343670  Uiso  0.025330
    O1  O2-  1.0000  0.286470  0.710750  0.319120  Uiso  0.025330
    O1  O2-  1.0000  0.409420  0.807120  0.294570  Uiso  0.025330
    O1  O2-  1.0000  0.532370  0.903500  0.270020  Uiso  0.025330
    O1  O2-  1.0000  0.655320  0.999870  0.245480  Uiso  0.025330
    O1  O2-  1.0000  0.035660  0.271050  0.355940  Uiso  0.025330
    O1  O2-  1.0000  0.158610  0.367420  0.331390  Uiso  0.025330
    O1  O2-  1.0000  0.281560  0.463790  0.306840  Uiso  0.025330
    O1  O2-  1.0000  0.404510  0.560170  0.282300  Uiso  0.025330
    O1  O2-  1.0000  0.527460  0.656540  0.257750  Uiso  0.025330
    O1  O2-  1.0000  0.650410  0.752910  0.233200  Uiso  0.025330
    O1  O2-  1.0000  0.773360  0.849290  0.208650  Uiso  0.025330
    O1  O2-  1.0000  0.896310  0.945660  0.184110  Uiso  0.025330
    O1  O2-  1.0000  0.030740  0.024090  0.343670  Uiso  0.025330
    O1  O2-  1.0000  0.153690  0.120470  0.319120  Uiso  0.025330
    O1  O2-  1.0000  0.276640  0.216840  0.294570  Uiso  0.025330
    O1  O2-  1.0000  0.399590  0.313210  0.270020  Uiso  0.025330
    O1  O2-  1.0000  0.522540  0.409590  0.245480  Uiso  0.025330
    O1  O2-  1.0000  0.645490  0.505960  0.220930  Uiso  0.025330
    O1  O2-  1.0000  0.768440  0.602330  0.196380  Uiso  0.025330
    O1  O2-  1.0000  0.891390  0.698700  0.171830  Uiso  0.025330
    O1  O2-  1.0000  0.394670  0.066260  0.257750  Uiso  0.025330
    O1  O2-  1.0000  0.517620  0.162630  0.233200  Uiso  0.025330
    O1  O2-  1.0000  0.640570  0.259000  0.208650  Uiso  0.025330
    O1  O2-  1.0000  0.763520  0.355380  0.184110  Uiso  0.025330
    O1  O2-  1.0000  0.886470  0.451750  0.159560  Uiso  0.025330
    O1  O2-  1.0000  0.635650  0.012050  0.196380  Uiso  0.025330
    O1  O2-  1.0000  0.758600  0.108420  0.171830  Uiso  0.025330
    O1  O2-  1.0000  0.881550  0.204790  0.147290  Uiso  0.025330
    O1  O2-  1.0000  0.999590  0.054210  0.110460  Uiso  0.025330
    O1  O2-  1.0000  0.045490  0.764960  0.306840  Uiso  0.025330
    O1  O2-  1.0000  0.168440  0.861330  0.282300  Uiso  0.025330
    O1  O2-  1.0000  0.291390  0.957710  0.257750  Uiso  0.025330
    O1  O2-  1.0000  0.040570  0.518000  0.294570  Uiso  0.025330
    O1  O2-  1.0000  0.163520  0.614380  0.270020  Uiso  0.025330
    O1  O2-  1.0000  0.286470  0.710750  0.245480  Uiso  0.025330
    O1  O2-  1.0000  0.409420  0.807120  0.220930  Uiso  0.025330
    O1  O2-  1.0000  0.532370  0.903500  0.196380  Uiso  0.025330
    O1  O2-  1.0000  0.655320  0.999870  0.171830  Uiso  0.025330
    O1  O2-  1.0000  0.035660  0.271050  0.282300  Uiso  0.025330
    O1  O2-  1.0000  0.158610  0.367420  0.257750  Uiso  0.025330
    O1  O2-  1.0000  0.281560  0.463790  0.233200  Uiso  0.025330
    O1  O2-  1.0000  0.404510  0.560170  0.208650  Uiso  0.025330
    O1  O2-  1.0000  0.527460  0.656540  0.184110  Uiso  0.025330
    O1  O2-  1.0000  0.650410  0.752910  0.159560  Uiso  0.025330
    O1  O2-  1.0000  0.773360  0.849290  0.135010  Uiso  0.025330
    O1  O2-  1.0000  0.896310  0.945660  0.110460  Uiso  0.025330
    O1  O2-  1.0000  0.030740  0.024090  0.270020  Uiso  0.025330
    O1  O2-  1.0000  0.153690  0.120470  0.245480  Uiso  0.025330
    O1  O2-  1.0000  0.276640  0.216840  0.220930  Uiso  0.025330
    O1  O2-  1.0000  0.399590  0.313210  0.196380  Uiso  0.025330
    O1  O2-  1.0000  0.522540  0.409590  0.171830  Uiso  0.025330
    O1  O2-  1.0000  0.645490  0.505960  0.147290  Uiso  0.025330
    O1  O2-  1.0000  0.768440  0.602330  0.122740  Uiso  0.025330
    O1  O2-  1.0000  0.891390  0.698700  0.098190  Uiso  0.025330
    O1  O2-  1.0000  0.394670  0.066260  0.184110  Uiso  0.025330
    O1  O2-  1.0000  0.517620  0.162630  0.159560  Uiso  0.025330
    O1  O2-  1.0000  0.640570  0.259000  0.135010  Uiso  0.025330
    O1  O2-  1.0000  0.763520  0.355380  0.110460  Uiso  0.025330
    O1  O2-  1.0000  0.886470  0.451750  0.085920  Uiso  0.025330
    O1  O2-  1.0000  0.635650  0.012050  0.122740  Uiso  0.025330
    O1  O2-  1.0000  0.758600  0.108420  0.098190  Uiso  0.025330
    O1  O2-  1.0000  0.881550  0.204790  0.073640  Uiso  0.025330
    O1  O2-  1.0000  0.999590  0.054210  0.036820  Uiso  0.025330
    O1  O2-  1.0000  0.045490  0.764960  0.233200  Uiso  0.025330
    O1  O2-  1.0000  0.168440  0.861330  0.208650  Uiso  0.025330
    O1  O2-  1.0000  0.291390  0.957710  0.184110  Uiso  0.025330
    O1  O2-  1.0000  0.040570  0.518000  0.220930  Uiso  0.025330
    O1  O2-  1.0000  0.163520  0.614380  0.196380  Uiso  0.025330
    O1  O2-  1.0000  0.286470  0.710750  0.171830  Uiso  0.025330
    O1  O2-  1.0000  0.409420  0.807120  0.147290  Uiso  0.025330
    O1  O2-  1.0000  0.532370  0.903500  0.122740  Uiso  0.025330
    O1  O2-  1.0000  0.655320  0.999870  0.098190  Uiso  0.025330
    O1  O2-  1.0000  0.035660  0.271050  0.208650  Uiso  0.025330
    O1  O2-  1.0000  0.158610  0.367420  0.184110  Uiso  0.025330
    O1  O2-  1.0000  0.281560  0.463790  0.159560  Uiso  0.025330
    O1  O2-  1.0000  0.404510  0.560170  0.135010  Uiso  0.025330
    O1  O2-  1.0000  0.527460  0.656540  0.110460  Uiso  0.025330
    O1  O2-  1.0000  0.650410  0.752910  0.085920  Uiso  0.025330
    O1  O2-  1.0000  0.773360  0.849290  0.061370  Uiso  0.025330
    O1  O2-  1.0000  0.896310  0.945660  0.036820  Uiso  0.025330
    O1  O2-  1.0000  0.030740  0.024090  0.196380  Uiso  0.025330
    O1  O2-  1.0000  0.153690  0.120470  0.171830  Uiso  0.025330
    O1  O2-  1.0000  0.276640  0.216840  0.147290  Uiso  0.025330
    O1  O2-  1.0000  0.399590  0.313210  0.122740  Uiso  0.025330
    O1  O2-  1.0000  0.522540  0.409590  0.098190  Uiso  0.025330
    O1  O2-  1.0000  0.645490  0.505960  0.073640  Uiso  0.025330
    O1  O2-  1.0000  0.768440  0.602330  0.049100  Uiso  0.025330
    O1  O2-  1.0000  0.891390  0.698700  0.024550  Uiso  0.025330
    O1  O2-  1.0000  0.394670  0.066260  0.110460  Uiso  0.025330
    O1  O2-  1.0000  0.517620  0.162630  0.085920  Uiso  0.025330
    O1  O2-  1.0000  0.640570  0.259000  0.061370  Uiso  0.025330
    O1  O2-  1.0000  0.763520  0.355380  0.036820  Uiso  0.025330
    O1  O2-  1.0000  0.886470  0.451750  0.012270  Uiso  0.025330
    O1  O2-  1.0000  0.635650  0.012050  0.049100  Uiso  0.025330
    O1  O2-  1.0000  0.758600  0.108420  0.024550  Uiso  0.025330
    O1  O2-  1.0000  0.881550  0.204790  0.000000  Uiso  0.025330
    O1  O2-  1.0000  0.045490  0.764960  0.159560  Uiso  0.025330
    O1  O2-  1.0000  0.168440  0.861330  0.135010  Uiso  0.025330
    O1  O2-  1.0000  0.291390  0.957710  0.110460  Uiso  0.025330
    O1  O2-  1.0000  0.040570  0.518000  0.147290  Uiso  0.025330
    O1  O2-  1.0000  0.163520  0.614380  0.122740  Uiso  0.025330
    O1  O2-  1.0000  0.286470  0.710750  0.098190  Uiso  0.025330
    O1  O2-  1.0000  0.409420  0.807120  0.073640  Uiso  0.025330
    O1  O2-  1.0000  0.532370  0.903500  0.049100  Uiso  0.025330
    O1  O2-  1.0000  0.655320  0.999870  0.024550  Uiso  0.025330
    O1  O2-  1.0000  0.035660  0.271050  0.135010  Uiso  0.025330
    O1  O2-  1.0000  0.158610  0.367420  0.110460  Uiso  0.025330
    O1  O2-  1.0000  0.281560  0.463790  0.085920  Uiso  0.025330
    O1  O2-  1.0000  0.404510  0.560170  0.061370  Uiso  0.025330
    O1  O2-  1.0000  0.527460  0.656540  0.036820  Uiso  0.025330
    O1  O2-  1.0000  0.650410  0.752910  0.012270  Uiso  0.025330
    O1  O2-  1.0000  0.030740  0.024090  0.122740  Uiso  0.025330
    O1  O2-  1.0000  0.153690  0.120470  0.098190  Uiso  0.025330
    O1  O2-  1.0000  0.276640  0.216840  0.073640  Uiso  0.025330
    O1  O2-  1.0000  0.399590  0.313210  0.049100  Uiso  0.025330
    O1  O2-  1.0000  0.522540  0.409590  0.024550  Uiso  0.025330
    O1  O2-  1.0000  0.645490  0.505960  0.000000  Uiso  0.025330
    O1  O2-  1.0000  0.394670  0.066260  0.036820  Uiso  0.025330
    O1  O2-  1.0000  0.517620  0.162630  0.012270  Uiso  0.025330
    O1  O2-  1.0000  0.045490  0.764960  0.085920  Uiso  0.025330
    O1  O2-  1.0000  0.168440  0.861330  0.061370  Uiso  0.025330
    O1  O2-  1.0000  0.291390  0.957710  0.036820  Uiso  0.025330
    O1  O2-  1.0000  0.040570  0.518000  0.073640  Uiso  0.025330
    O1  O2-  1.0000  0.163520  0.614380  0.049100  Uiso  0.025330
    O1  O2-  1.0000  0.286470  0.710750  0.024550  Uiso  0.025330
    O1  O2-  1.0000  0.409420  0.807120  0.000000  Uiso  0.025330
    O1  O2-  1.0000  0.035660  0.271050  0.061370  Uiso  0.025330
    O1  O2-  1.0000  0.158610  0.367420  0.036820  Uiso  0.025330
    O1  O2-  1.0000  0.281560  0.463790  0.012270  Uiso  0.025330
    O1  O2-  1.0000  0.030740  0.024090  0.049100  Uiso  0.025330
    O1  O2-  1.0000  0.153690  0.120470  0.024550  Uiso  0.025330
    O1  O2-  1.0000  0.276640  0.216840  0.000000  Uiso  0.025330
    O1  O2-  1.0000  0.045490  0.764960  0.012270  Uiso  0.025330
    O1  O2-  1.0000  0.040570  0.518000  0.000000  Uiso  0.025330
    O1  O2-  1.0000  0.881550  0.204790  0.994170  Uiso  0.025330
    O1  O2-  1.0000  0.999590  0.054210  0.957350  Uiso  0.025330
    O1  O2-  1.0000  0.773360  0.849290  0.981900  Uiso  0.025330
    O1  O2-  1.0000  0.896310  0.945660  0.957350  Uiso  0.025330
    O1  O2-  1.0000  0.645490  0.505960  0.994170  Uiso  0.025330
    O1  O2-  1.0000  0.768440  0.602330  0.969630  Uiso  0.025330
    O1  O2-  1.0000  0.891390  0.698700  0.945080  Uiso  0.025330
    O1  O2-  1.0000  0.640570  0.259000  0.981900  Uiso  0.025330
    O1  O2-  1.0000  0.763520  0.355380  0.957350  Uiso  0.025330
    O1  O2-  1.0000  0.886470  0.451750  0.932810  Uiso  0.025330
    O1  O2-  1.0000  0.635650  0.012050  0.969630  Uiso  0.025330
    O1  O2-  1.0000  0.758600  0.108420  0.945080  Uiso  0.025330
    O1  O2-  1.0000  0.881550  0.204790  0.920530  Uiso  0.025330
    O1  O2-  1.0000  0.999590  0.054210  0.883710  Uiso  0.025330
    O1  O2-  1.0000  0.409420  0.807120  0.994170  Uiso  0.025330
    O1  O2-  1.0000  0.532370  0.903500  0.969630  Uiso  0.025330
    O1  O2-  1.0000  0.655320  0.999870  0.945080  Uiso  0.025330
    O1  O2-  1.0000  0.404510  0.560170  0.981900  Uiso  0.025330
    O1  O2-  1.0000  0.527460  0.656540  0.957350  Uiso  0.025330
    O1  O2-  1.0000  0.650410  0.752910  0.932810  Uiso  0.025330
    O1  O2-  1.0000  0.773360  0.849290  0.908260  Uiso  0.025330
    O1  O2-  1.0000  0.896310  0.945660  0.883710  Uiso  0.025330
    O1  O2-  1.0000  0.276640  0.216840  0.994170  Uiso  0.025330
    O1  O2-  1.0000  0.399590  0.313210  0.969630  Uiso  0.025330
    O1  O2-  1.0000  0.522540  0.409590  0.945080  Uiso  0.025330
    O1  O2-  1.0000  0.645490  0.505960  0.920530  Uiso  0.025330
    O1  O2-  1.0000  0.768440  0.602330  0.895980  Uiso  0.025330
    O1  O2-  1.0000  0.891390  0.698700  0.871440  Uiso  0.025330
    O1  O2-  1.0000  0.394670  0.066260  0.957350  Uiso  0.025330
    O1  O2-  1.0000  0.517620  0.162630  0.932810  Uiso  0.025330
    O1  O2-  1.0000  0.640570  0.259000  0.908260  Uiso  0.025330
    O1  O2-  1.0000  0.763520  0.355380  0.883710  Uiso  0.025330
    O1  O2-  1.0000  0.886470  0.451750  0.859160  Uiso  0.025330
    O1  O2-  1.0000  0.635650  0.012050  0.895980  Uiso  0.025330
    O1  O2-  1.0000  0.758600  0.108420  0.871440  Uiso  0.025330
    O1  O2-  1.0000  0.881550  0.204790  0.846890  Uiso  0.025330
    O1  O2-  1.0000  0.999590  0.054210  0.810070  Uiso  0.025330
    O1  O2-  1.0000  0.168440  0.861330  0.981900  Uiso  0.025330
    O1  O2-  1.0000  0.291390  0.957710  0.957350  Uiso  0.025330
    O1  O2-  1.0000  0.040570  0.518000  0.994170  Uiso  0.025330
    O1  O2-  1.0000  0.163520  0.614380  0.969630  Uiso  0.025330
    O1  O2-  1.0000  0.286470  0.710750  0.945080  Uiso  0.025330
    O1  O2-  1.0000  0.409420  0.807120  0.920530  Uiso  0.025330
    O1  O2-  1.0000  0.532370  0.903500  0.895980  Uiso  0.025330
    O1  O2-  1.0000  0.655320  0.999870  0.871440  Uiso  0.025330
    O1  O2-  1.0000  0.035660  0.271050  0.981900  Uiso  0.025330
    O1  O2-  1.0000  0.158610  0.367420  0.957350  Uiso  0.025330
    O1  O2-  1.0000  0.281560  0.463790  0.932810  Uiso  0.025330
    O1  O2-  1.0000  0.404510  0.560170  0.908260  Uiso  0.025330
    O1  O2-  1.0000  0.527460  0.656540  0.883710  Uiso  0.025330
    O1  O2-  1.0000  0.650410  0.752910  0.859160  Uiso  0.025330
    O1  O2-  1.0000  0.773360  0.849290  0.834620  Uiso  0.025330
    O1  O2-  1.0000  0.896310  0.945660  0.810070  Uiso  0.025330
    O1  O2-  1.0000  0.030740  0.024090  0.969630  Uiso  0.025330
    O1  O2-  1.0000  0.153690  0.120470  0.945080  Uiso  0.025330
    O1  O2-  1.0000  0.276640  0.216840  0.920530  Uiso  0.025330
    O1  O2-  1.0000  0.399590  0.313210  0.895980  Uiso  0.025330
    O1  O2-  1.0000  0.522540  0.409590  0.871440  Uiso  0.025330
    O1  O2-  1.0000  0.645490  0.505960  0.846890  Uiso  0.025330
    O1  O2-  1.0000  0.768440  0.602330  0.822340  Uiso  0.025330
    O1  O2-  1.0000  0.891390  0.698700  0.797790  Uiso  0.025330
    O1  O2-  1.0000  0.394670  0.066260  0.883710  Uiso  0.025330
    O1  O2-  1.0000  0.517620  0.162630  0.859160  Uiso  0.025330
    O1  O2-  1.0000  0.640570  0.259000  0.834620  Uiso  0.025330
    O1  O2-  1.0000  0.763520  0.355380  0.810070  Uiso  0.025330
    O1  O2-  1.0000  0.886470  0.451750  0.785520  Uiso  0.025330
    O1  O2-  1.0000  0.635650  0.012050  0.822340  Uiso  0.025330
    O1  O2-  1.0000  0.758600  0.108420  0.797790  Uiso  0.025330
    O1  O2-  1.0000  0.881550  0.204790  0.773250  Uiso  0.025330
    O1  O2-  1.0000  0.999590  0.054210  0.736430  Uiso  0.025330
    O1  O2-  1.0000  0.045490  0.764960  0.932810  Uiso  0.025330
    O1  O2-  1.0000  0.168440  0.861330  0.908260  Uiso  0.025330
    O1  O2-  1.0000  0.291390  0.957710  0.883710  Uiso  0.025330
    O1  O2-  1.0000  0.040570  0.518000  0.920530  Uiso  0.025330
    O1  O2-  1.0000  0.163520  0.614380  0.895980  Uiso  0.025330
    O1  O2-  1.0000  0.286470  0.710750  0.871440  Uiso  0.025330
    O1  O2-  1.0000  0.409420  0.807120  0.846890  Uiso  0.025330
    O1  O2-  1.0000  0.532370  0.903500  0.822340  Uiso  0.025330
    O1  O2-  1.0000  0.655320  0.999870  0.797790  Uiso  0.025330
    O1  O2-  1.0000  0.035660  0.271050  0.908260  Uiso  0.025330
    O1  O2-  1.0000  0.158610  0.367420  0.883710  Uiso  0.025330
    O1  O2-  1.0000  0.281560  0.463790  0.859160  Uiso  0.025330
    O1  O2-  1.0000  0.404510  0.560170  0.834620  Uiso  0.025330
    O1  O2-  1.0000  0.527460  0.656540  0.810070  Uiso  0.025330
    O1  O2-  1.0000  0.650410  0.752910  0.785520  Uiso  0.025330
    O1  O2-  1.0000  0.773360  0.849290  0.760970  Uiso  0.025330
    O1  O2-  1.0000  0.896310  0.945660  0.736430  Uiso  0.025330
    O1  O2-  1.0000  0.030740  0.024090  0.895980  Uiso  0.025330
    O1  O2-  1.0000  0.153690  0.120470  0.871440  Uiso  0.025330
    O1  O2-  1.0000  0.276640  0.216840  0.846890  Uiso  0.025330
    O1  O2-  1.0000  0.399590  0.313210  0.822340  Uiso  0.025330
    O1  O2-  1.0000  0.522540  0.409590  0.797790  Uiso  0.025330
    O1  O2-  1.0000  0.645490  0.505960  0.773250  Uiso  0.025330
    O1  O2-  1.0000  0.768440  0.602330  0.748700  Uiso  0.025330
    O1  O2-  1.0000  0.891390  0.698700  0.724150  Uiso  0.025330
    O1  O2-  1.0000  0.394670  0.066260  0.810070  Uiso  0.025330
    O1  O2-  1.0000  0.517620  0.162630  0.785520  Uiso  0.025330
    O1  O2-  1.0000  0.640570  0.259000  0.760970  Uiso  0.025330
    O1  O2-  1.0000  0.763520  0.355380  0.736430  Uiso  0.025330
    O1  O2-  1.0000  0.886470  0.451750  0.711880  Uiso  0.025330
    O1  O2-  1.0000  0.635650  0.012050  0.748700  Uiso  0.025330
    O1  O2-  1.0000  0.758600  0.108420  0.724150  Uiso  0.025330
    O1  O2-  1.0000  0.881550  0.204790  0.699600  Uiso  0.025330
    O1  O2-  1.0000  0.999590  0.054210  0.662780  Uiso  0.025330
    O1  O2-  1.0000  0.045490  0.764960  0.859160  Uiso  0.025330
    O1  O2-  1.0000  0.168440  0.861330  0.834620  Uiso  0.025330
    O1  O2-  1.0000  0.291390  0.957710  0.810070  Uiso  0.025330
    O1  O2-  1.0000  0.040570  0.518000  0.846890  Uiso  0.025330
    O1  O2-  1.0000  0.163520  0.614380  0.822340  Uiso  0.025330
    O1  O2-  1.0000  0.286470  0.710750  0.797790  Uiso  0.025330
    O1  O2-  1.0000  0.409420  0.807120  0.773250  Uiso  0.025330
    O1  O2-  1.0000  0.532370  0.903500  0.748700  Uiso  0.025330
    O1  O2-  1.0000  0.655320  0.999870  0.724150  Uiso  0.025330
    O1  O2-  1.0000  0.035660  0.271050  0.834620  Uiso  0.025330
    O1  O2-  1.0000  0.158610  0.367420  0.810070  Uiso  0.025330
    O1  O2-  1.0000  0.281560  0.463790  0.785520  Uiso  0.025330
    O1  O2-  1.0000  0.404510  0.560170  0.760970  Uiso  0.025330
    O1  O2-  1.0000  0.527460  0.656540  0.736430  Uiso  0.025330
    O1  O2-  1.0000  0.650410  0.752910  0.711880  Uiso  0.025330
    O1  O2-  1.0000  0.773360  0.849290  0.687330  Uiso  0.025330
    O1  O2-  1.0000  0.896310  0.945660  0.662780  Uiso  0.025330
    O1  O2-  1.0000  0.030740  0.024090  0.822340  Uiso  0.025330
    O1  O2-  1.0000  0.153690  0.120470  0.797790  Uiso  0.025330
    O1  O2-  1.0000  0.276640  0.216840  0.773250  Uiso  0.025330
    O1  O2-  1.0000  0.399590  0.313210  0.748700  Uiso  0.025330
    O1  O2-  1.0000  0.522540  0.409590  0.724150  Uiso  0.025330
    O1  O2-  1.0000  0.645490  0.505960  0.699600  Uiso  0.025330
    O1  O2-  1.0000  0.768440  0.602330  0.675060  Uiso  0.025330
    O1  O2-  1.0000  0.891390  0.698700  0.650510  Uiso  0.025330
    O1  O2-  1.0000  0.394670  0.066260  0.736430  Uiso  0.025330
    O1  O2-  1.0000  0.517620  0.162630  0.711880  Uiso  0.025330
    O1  O2-  1.0000  0.640570  0.259000  0.687330  Uiso  0.025330
    O1  O2-  1.0000  0.763520  0.355380  0.662780  Uiso  0.025330
    O1  O2-  1.0000  0.886470  0.451750  0.638240  Uiso  0.025330
    O1  O2-  1.0000  0.635650  0.012050  0.675060  Uiso  0.025330
    O1  O2-  1.0000  0.758600  0.108420  0.650510  Uiso  0.025330
    O1  O2-  1.0000  0.881550  0.204790  0.625960  Uiso  0.025330
    O1  O2-  1.0000  0.999590  0.054210  0.589140  Uiso  0.025330
    O1  O2-  1.0000  0.045490  0.764960  0.785520  Uiso  0.025330
    O1  O2-  1.0000  0.168440  0.861330  0.760970  Uiso  0.025330
    O1  O2-  1.0000  0.291390  0.957710  0.736430  Uiso  0.025330
    O1  O2-  1.0000  0.040570  0.518000  0.773250  Uiso  0.025330
    O1  O2-  1.0000  0.163520  0.614380  0.748700  Uiso  0.025330
    O1  O2-  1.0000  0.286470  0.710750  0.724150  Uiso  0.025330
    O1  O2-  1.0000  0.409420  0.807120  0.699600  Uiso  0.025330
    O1  O2-  1.0000  0.532370  0.903500  0.675060  Uiso  0.025330
    O1  O2-  1.0000  0.655320  0.999870  0.650510  Uiso  0.025330
    O1  O2-  1.0000  0.035660  0.271050  0.760970  Uiso  0.025330
    O1  O2-  1.0000  0.158610  0.367420  0.736430  Uiso  0.025330
    O1  O2-  1.0000  0.281560  0.463790  0.711880  Uiso  0.025330
    O1  O2-  1.0000  0.404510  0.560170  0.687330  Uiso  0.025330
    O1  O2-  1.0000  0.527460  0.656540  0.662780  Uiso  0.025330
    O1  O2-  1.0000  0.650410  0.752910  0.638240  Uiso  0.025330
    O1  O2-  1.0000  0.773360  0.849290  0.613690  Uiso  0.025330
    O1  O2-  1.0000  0.896310  0.945660  0.589140  Uiso  0.025330
    O1  O2-  1.0000  0.030740  0.024090  0.748700  Uiso  0.025330
    O1  O2-  1.0000  0.153690  0.120470  0.724150  Uiso  0.025330
    O1  O2-  1.0000  0.276640  0.216840  0.699600  Uiso  0.025330
    O1  O2-  1.0000  0.399590  0.313210  0.675060  Uiso  0.025330
    O1  O2-  1.0000  0.522540  0.409590  0.650510  Uiso  0.025330
    O1  O2-  1.0000  0.645490  0.505960  0.625960  Uiso  0.025330
    O1  O2-  1.0000  0.768440  0.602330  0.601410  Uiso  0.025330
    O1  O2-  1.0000  0.891390  0.698700  0.576870  Uiso  0.025330
    O1  O2-  1.0000  0.394670  0.066260  0.662780  Uiso  0.025330
    O1  O2-  1.0000  0.517620  0.162630  0.638240  Uiso  0.025330
    O1  O2-  1.0000  0.640570  0.259000  0.613690  Uiso  0.025330
    O1  O2-  1.0000  0.763520  0.355380  0.589140  Uiso  0.025330
    O1  O2-  1.0000  0.886470  0.451750  0.564590  Uiso  0.025330
    O1  O2-  1.0000  0.635650  0.012050  0.601410  Uiso  0.025330
    O1  O2-  1.0000  0.758600  0.108420  0.576870  Uiso  0.025330
    O1  O2-  1.0000  0.881550  0.204790  0.552320  Uiso  0.025330
    O1  O2-  1.0000  0.999590  0.054210  0.515500  Uiso  0.025330
    O1  O2-  1.0000  0.045490  0.764960  0.711880  Uiso  0.025330
    O1  O2-  1.0000  0.168440  0.861330  0.687330  Uiso  0.025330
    O1  O2-  1.0000  0.291390  0.957710  0.662780  Uiso  0.025330
    O1  O2-  1.0000  0.040570  0.518000  0.699600  Uiso  0.025330
    O1  O2-  1.0000  0.163520  0.614380  0.675060  Uiso  0.025330
    O1  O2-  1.0000  0.286470  0.710750  0.650510  Uiso  0.025330
    O1  O2-  1.0000  0.409420  0.807120  0.625960  Uiso  0.025330
    O1  O2-  1.0000  0.532370  0.903500  0.601410  Uiso  0.025330
    O1  O2-  1.0000  0.655320  0.999870  0.576870  Uiso  0.025330
    O1  O2-  1.0000  0.035660  0.271050  0.687330  Uiso  0.025330
    O1  O2-  1.0000  0.158610  0.367420  0.662780  Uiso  0.025330
    O1  O2-  1.0000  0.281560  0.463790  0.638240  Uiso  0.025330
    O1  O2-  1.0000  0.404510  0.560170  0.613690  Uiso  0.025330
    O1  O2-  1.0000  0.527460  0.656540  0.589140  Uiso  0.025330
    O1  O2-  1.0000  0.650410  0.752910  0.564590  Uiso  0.025330
    O1  O2-  1.0000  0.773360  0.849290  0.540050  Uiso  0.025330
    O1  O2-  1.0000  0.896310  0.945660  0.515500  Uiso  0.025330
    O1  O2-  1.0000  0.030740  0.024090  0.675060  Uiso  0.025330
    O1  O2-  1.0000  0.153690  0.120470  0.650510  Uiso  0.025330
    O1  O2-  1.0000  0.276640  0.216840  0.625960  Uiso  0.025330
    O1  O2-  1.0000  0.399590  0.313210  0.601410  Uiso  0.025330
    O1  O2-  1.0000  0.522540  0.409590  0.576870  Uiso  0.025330
    O1  O2-  1.0000  0.645490  0.505960  0.552320  Uiso  0.025330
    O1  O2-  1.0000  0.768440  0.602330  0.527770  Uiso  0.025330
    O1  O2-  1.0000  0.891390  0.698700  0.503220  Uiso  0.025330
    O1  O2-  1.0000  0.394670  0.066260  0.589140  Uiso  0.025330
    O1  O2-  1.0000  0.517620  0.162630  0.564590  Uiso  0.025330
    O1  O2-  1.0000  0.640570  0.259000  0.540050  Uiso  0.025330
    O1  O2-  1.0000  0.763520  0.355380  0.515500  Uiso  0.025330
    O1  O2-  1.0000  0.886470  0.451750  0.490950  Uiso  0.025330
    O1  O2-  1.0000  0.635650  0.012050  0.527770  Uiso  0.025330
    O1  O2-  1.0000  0.758600  0.108420  0.503220  Uiso  0.025330
    O1  O2-  1.0000  0.881550  0.204790  0.478680  Uiso  0.025330
    O1  O2-  1.0000  0.999590  0.054210  0.441860  Uiso  0.025330
    O1  O2-  1.0000  0.045490  0.764960  0.638240  Uiso  0.025330
    O1  O2-  1.0000  0.168440  0.861330  0.613690  Uiso  0.025330
    O1  O2-  1.0000  0.291390  0.957710  0.589140  Uiso  0.025330
    O1  O2-  1.0000  0.040570  0.518000  0.625960  Uiso  0.025330
    O1  O2-  1.0000  0.163520  0.614380  0.601410  Uiso  0.025330
    O1  O2-  1.0000  0.286470  0.710750  0.576870  Uiso  0.025330
    O1  O2-  1.0000  0.409420  0.807120  0.552320  Uiso  0.025330
    O1  O2-  1.0000  0.532370  0.903500  0.527770  Uiso  0.025330
    O1  O2-  1.0000  0.655320  0.999870  0.503220  Uiso  0.025330
    O1  O2-  1.0000  0.035660  0.271050  0.613690  Uiso  0.025330
    O1  O2-  1.0000  0.158610  0.367420  0.589140  Uiso  0.025330
    O1  O2-  1.0000  0.281560  0.463790  0.564590  Uiso  0.025330
    O1  O2-  1.0000  0.404510  0.560170  0.540050  Uiso  0.025330
    O1  O2-  1.0000  0.527460  0.656540  0.515500  Uiso  0.025330
    O1  O2-  1.0000  0.650410  0.752910  0.490950  Uiso  0.025330
    O1  O2-  1.0000  0.773360  0.849290  0.466400  Uiso  0.025330
    O1  O2-  1.0000  0.896310  0.945660  0.441860  Uiso  0.025330
    O1  O2-  1.0000  0.030740  0.024090  0.601410  Uiso  0.025330
    O1  O2-  1.0000  0.153690  0.120470  0.576870  Uiso  0.025330
    O1  O2-  1.0000  0.276640  0.216840  0.552320  Uiso  0.025330
    O1  O2-  1.0000  0.399590  0.313210  0.527770  Uiso  0.025330
    O1  O2-  1.0000  0.522540  0.409590  0.503220  Uiso  0.025330
    O1  O2-  1.0000  0.645490  0.505960  0.478680  Uiso  0.025330
    O1  O2-  1.0000  0.768440  0.602330  0.454130  Uiso  0.025330
    O1  O2-  1.0000  0.891390  0.698700  0.429580  Uiso  0.025330
    O1  O2-  1.0000  0.394670  0.066260  0.515500  Uiso  0.025330
    O1  O2-  1.0000  0.517620  0.162630  0.490950  Uiso  0.025330
    O1  O2-  1.0000  0.640570  0.259000  0.466400  Uiso  0.025330
    O1  O2-  1.0000  0.763520  0.355380  0.441860  Uiso  0.025330
    O1  O2-  1.0000  0.886470  0.451750  0.417310  Uiso  0.025330
    O1  O2-  1.0000  0.635650  0.012050  0.454130  Uiso  0.025330
    O1  O2-  1.0000  0.758600  0.108420  0.429580  Uiso  0.025330
    O1  O2-  1.0000  0.881550  0.204790  0.405030  Uiso  0.025330
    O1  O2-  1.0000  0.999590  0.054210  0.368210  Uiso  0.025330
    O1  O2-  1.0000  0.045490  0.764960  0.564590  Uiso  0.025330
    O1  O2-  1.0000  0.168440  0.861330  0.540050  Uiso  0.025330
    O1  O2-  1.0000  0.291390  0.957710  0.515500  Uiso  0.025330
    O1  O2-  1.0000  0.040570  0.518000  0.552320  Uiso  0.025330
    O1  O2-  1.0000  0.163520  0.614380  0.527770  Uiso  0.025330
    O1  O2-  1.0000  0.286470  0.710750  0.503220  Uiso  0.025330
    O1  O2-  1.0000  0.409420  0.807120  0.478680  Uiso  0.025330
    O1  O2-  1.0000  0.532370  0.903500  0.454130  Uiso  0.025330
    O1  O2-  1.0000  0.655320  0.999870  0.429580  Uiso  0.025330
    O1  O2-  1.0000  0.035660  0.271050  0.540050  Uiso  0.025330
    O1  O2-  1.0000  0.158610  0.367420  0.515500  Uiso  0.025330
    O1  O2-  1.0000  0.281560  0.463790  0.490950  Uiso  0.025330
    O1  O2-  1.0000  0.404510  0.560170  0.466400  Uiso  0.025330
    O1  O2-  1.0000  0.527460  0.656540  0.441860  Uiso  0.025330
    O1  O2-  1.0000  0.650410  0.752910  0.417310  Uiso  0.025330
    O1  O2-  1.0000  0.773360  0.849290  0.392760  Uiso  0.025330
    O1  O2-  1.0000  0.896310  0.945660  0.368210  Uiso  0.025330
    O1  O2-  1.0000  0.030740  0.024090  0.527770  Uiso  0.025330
    O1  O2-  1.0000  0.153690  0.120470  0.503220  Uiso  0.025330
    O1  O2-  1.0000  0.276640  0.216840  0.478680  Uiso  0.025330
    O1  O2-  1.0000  0.399590  0.313210  0.454130  Uiso  0.025330
    O1  O2-  1.0000  0.522540  0.409590  0.429580  Uiso  0.025330
    O1  O2-  1.0000  0.645490  0.505960  0.405030  Uiso  0.025330
    O1  O2-  1.0000  0.768440  0.602330  0.380490  Uiso  0.025330
    O1  O2-  1.0000  0.891390  0.698700  0.355940  Uiso  0.025330
    O1  O2-  1.0000  0.394670  0.066260  0.441860  Uiso  0.025330
    O1  O2-  1.0000  0.517620  0.162630  0.417310  Uiso  0.025330
    O1  O2-  1.0000  0.640570  0.259000  0.392760  Uiso  0.025330
    O1  O2-  1.0000  0.763520  0.355380  0.368210  Uiso  0.025330
    O1  O2-  1.0000  0.886470  0.451750  0.343670  Uiso  0.025330
    O1  O2-  1.0000  0.635650  0.012050  0.380490  Uiso  0.025330
    O1  O2-  1.0000  0.758600  0.108420  0.355940  Uiso  0.025330
    O1  O2-  1.0000  0.881550  0.204790  0.331390  Uiso  0.025330
    O1  O2-  1.0000  0.999590  0.054210  0.294570  Uiso  0.025330
    O1  O2-  1.0000  0.045490  0.764960  0.490950  Uiso  0.025330
    O1  O2-  1.0000  0.168440  0.861330  0.466400  Uiso  0.025330
    O1  O2-  1.0000  0.291390  0.957710  0.441860  Uiso  0.025330
    O1  O2-  1.0000  0.040570  0.518000  0.478680  Uiso  0.025330
    O1  O2-  1.0000  0.163520  0.614380  0.454130  Uiso  0.025330
    O1  O2-  1.0000  0.286470  0.710750  0.429580  Uiso  0.025330
    O1  O2-  1.0000  0.409420  0.807120  0.405030  Uiso  0.025330
    O1  O2-  1.0000  0.532370  0.903500  0.380490  Uiso  0.025330
    O1  O2-  1.0000  0.655320  0.999870  0.355940  Uiso  0.025330
    O1  O2-  1.0000  0.035660  0.271050  0.466400  Uiso  0.025330
    O1  O2-  1.0000  0.158610  0.367420  0.441860  Uiso  0.025330
    O1  O2-  1.0000  0.281560  0.463790  0.417310  Uiso  0.025330
    O1  O2-  1.0000  0.404510  0.560170  0.392760  Uiso  0.025330
    O1  O2-  1.0000  0.527460  0.656540  0.368210  Uiso  0.025330
    O1  O2-  1.0000  0.650410  0.752910  0.343670  Uiso  0.025330
    O1  O2-  1.0000  0.773360  0.849290  0.319120  Uiso  0.025330
    O1  O2-  1.0000  0.896310  0.945660  0.294570  Uiso  0.025330
    O1  O2-  1.0000  0.030740  0.024090  0.454130  Uiso  0.025330
    O1  O2-  1.0000  0.153690  0.120470  0.429580  Uiso  0.025330
    O1  O2-  1.0000  0.276640  0.216840  0.405030  Uiso  0.025330
    O1  O2-  1.0000  0.399590  0.313210  0.380490  Uiso  0.025330
    O1  O2-  1.0000  0.522540  0.409590  0.355940  Uiso  0.025330
    O1  O2-  1.0000  0.645490  0.505960  0.331390  Uiso  0.025330
    O1  O2-  1.0000  0.768440  0.602330  0.306840  Uiso  0.025330
    O1  O2-  1.0000  0.891390  0.698700  0.282300  Uiso  0.025330
    O1  O2-  1.0000  0.394670  0.066260  0.368210  Uiso  0.025330
    O1  O2-  1.0000  0.517620  0.162630  0.343670  Uiso  0.025330
    O1  O2-  1.0000  0.640570  0.259000  0.319120  Uiso  0.025330
    O1  O2-  1.0000  0.763520  0.355380  0.294570  Uiso  0.025330
    O1  O2-  1.0000  0.886470  0.451750  0.270020  Uiso  0.025330
    O1  O2-  1.0000  0.635650  0.012050  0.306840  Uiso  0.025330
    O1  O2-  1.0000  0.758600  0.108420  0.282300  Uiso  0.025330
    O1  O2-  1.0000  0.881550  0.204790  0.257750  Uiso  0.025330
    O1  O2-  1.0000  0.999590  0.054210  0.220930  Uiso  0.025330
    O1  O2-  1.0000  0.045490  0.764960  0.417310  Uiso  0.025330
    O1  O2-  1.0000  0.168440  0.861330  0.392760  Uiso  0.025330
    O1  O2-  1.0000  0.291390  0.957710  0.368210  Uiso  0.025330
    O1  O2-  1.0000  0.040570  0.518000  0.405030  Uiso  0.025330
    O1  O2-  1.0000  0.163520  0.614380  0.380490  Uiso  0.025330
    O1  O2-  1.0000  0.286470  0.710750  0.355940  Uiso  0.025330
    O1  O2-  1.0000  0.409420  0.807120  0.331390  Uiso  0.025330
    O1  O2-  1.0000  0.532370  0.903500  0.306840  Uiso  0.025330
    O1  O2-  1.0000  0.655320  0.999870  0.282300  Uiso  0.025330
    O1  O2-  1.0000  0.035660  0.271050  0.392760  Uiso  0.025330
    O1  O2-  1.0000  0.158610  0.367420  0.368210  Uiso  0.025330
    O1  O2-  1.0000  0.281560  0.463790  0.343670  Uiso  0.025330
    O1  O2-  1.0000  0.404510  0.560170  0.319120  Uiso  0.025330
    O1  O2-  1.0000  0.527460  0.656540  0.294570  Uiso  0.025330
    O1  O2-  1.0000  0.650410  0.752910  0.270020  Uiso  0.025330
    O1  O2-  1.0000  0.773360  0.849290  0.245480  Uiso  0.025330
    O1  O2-  1.0000  0.896310  0.945660  0.220930  Uiso  0.025330
    O1  O2-  1.0000  0.030740  0.024090  0.380490  Uiso  0.025330
    O1  O2-  1.0000  0.153690  0.120470  0.355940  Uiso  0.025330
    O1  O2-  1.0000  0.276640  0.216840  0.331390  Uiso  0.025330
    O1  O2-  1.0000  0.399590  0.313210  0.306840  Uiso  0.025330
    O1  O2-  1.0000  0.522540  0.409590  0.282300  Uiso  0.025330
    O1  O2-  1.0000  0.645490  0.505960  0.257750  Uiso  0.025330
    O1  O2-  1.0000  0.768440  0.602330  0.233200  Uiso  0.025330
    O1  O2-  1.0000  0.891390  0.698700  0.208650  Uiso  0.025330
    O1  O2-  1.0000  0.394670  0.066260  0.294570  Uiso  0.025330
    O1  O2-  1.0000  0.517620  0.162630  0.270020  Uiso  0.025330
    O1  O2-  1.0000  0.640570  0.259000  0.245480  Uiso  0.025330
    O1  O2-  1.0000  0.763520  0.355380  0.220930  Uiso  0.025330
    O1  O2-  1.0000  0.886470  0.451750  0.196380  Uiso  0.025330
    O1  O2-  1.0000  0.635650  0.012050  0.233200  Uiso  0.025330
    O1  O2-  1.0000  0.758600  0.108420  0.208650  Uiso  0.025330
    O1  O2-  1.0000  0.881550  0.204790  0.184110  Uiso  0.025330
    O1  O2-  1.0000  0.999590  0.054210  0.147290  Uiso  0.025330
    O1  O2-  1.0000  0.045490  0.764960  0.343670  Uiso  0.025330
    O1  O2-  1.0000  0.168440  0.861330  0.319120  Uiso  0.025330
    O1  O2-  1.0000  0.291390  0.957710  0.294570  Uiso  0.025330
    O1  O2-  1.0000  0.040570  0.518000  0.331390  Uiso  0.025330
    O1  O2-  1.0000  0.163520  0.614380  0.306840  Uiso  0.025330
    O1  O2-  1.0000  0.286470  0.710750  0.282300  Uiso  0.025330
    O1  O2-  1.0000  0.409420  0.807120  0.257750  Uiso  0.025330
    O1  O2-  1.0000  0.532370  0.903500  0.233200  Uiso  0.025330
    O1  O2-  1.0000  0.655320  0.999870  0.208650  Uiso  0.025330
    O1  O2-  1.0000  0.035660  0.271050  0.319120  Uiso  0.025330
    O1  O2-  1.0000  0.158610  0.367420  0.294570  Uiso  0.025330
    O1  O2-  1.0000  0.281560  0.463790  0.270020  Uiso  0.025330
    O1  O2-  1.0000  0.404510  0.560170  0.245480  Uiso  0.025330
    O1  O2-  1.0000  0.527460  0.656540  0.220930  Uiso  0.025330
    O1  O2-  1.0000  0.650410  0.752910  0.196380  Uiso  0.025330
    O1  O2-  1.0000  0.773360  0.849290  0.171830  Uiso  0.025330
    O1  O2-  1.0000  0.896310  0.945660  0.147290  Uiso  0.025330
    O1  O2-  1.0000  0.030740  0.024090  0.306840  Uiso  0.025330
    O1  O2-  1.0000  0.153690  0.120470  0.282300  Uiso  0.025330
    O1  O2-  1.0000  0.276640  0.216840  0.257750  Uiso  0.025330
    O1  O2-  1.0000  0.399590  0.313210  0.233200  Uiso  0.025330
    O1  O2-  1.0000  0.522540  0.409590  0.208650  Uiso  0.025330
    O1  O2-  1.0000  0.645490  0.505960  0.184110  Uiso  0.025330
    O1  O2-  1.0000  0.768440  0.602330  0.159560  Uiso  0.025330
    O1  O2-  1.0000  0.891390  0.698700  0.135010  Uiso  0.025330
    O1  O2-  1.0000  0.394670  0.066260  0.220930  Uiso  0.025330
    O1  O2-  1.0000  0.517620  0.162630  0.196380  Uiso  0.025330
    O1  O2-  1.0000  0.640570  0.259000  0.171830  Uiso  0.025330
    O1  O2-  1.0000  0.763520  0.355380  0.147290  Uiso  0.025330
    O1  O2-  1.0000  0.886470  0.451750  0.122740  Uiso  0.025330
    O1  O2-  1.0000  0.635650  0.012050  0.159560  Uiso  0.025330
    O1  O2-  1.0000  0.758600  0.108420  0.135010  Uiso  0.025330
    O1  O2-  1.0000  0.881550  0.204790  0.110460  Uiso  0.025330
    O1  O2-  1.0000  0.999590  0.054210  0.073640  Uiso  0.025330
    O1  O2-  1.0000  0.045490  0.764960  0.270020  Uiso  0.025330
    O1  O2-  1.0000  0.168440  0.861330  0.245480  Uiso  0.025330
    O1  O2-  1.0000  0.291390  0.957710  0.220930  Uiso  0.025330
    O1  O2-  1.0000  0.040570  0.518000  0.257750  Uiso  0.025330
    O1  O2-  1.0000  0.163520  0.614380  0.233200  Uiso  0.025330
    O1  O2-  1.0000  0.286470  0.710750  0.208650  Uiso  0.025330
    O1  O2-  1.0000  0.409420  0.807120  0.184110  Uiso  0.025330
    O1  O2-  1.0000  0.532370  0.903500  0.159560  Uiso  0.025330
    O1  O2-  1.0000  0.655320  0.999870  0.135010  Uiso  0.025330
    O1  O2-  1.0000  0.035660  0.271050  0.245480  Uiso  0.025330
    O1  O2-  1.0000  0.158610  0.367420  0.220930  Uiso  0.025330
    O1  O2-  1.0000  0.281560  0.463790  0.196380  Uiso  0.025330
    O1  O2-  1.0000  0.404510  0.560170  0.171830  Uiso  0.025330
    O1  O2-  1.0000  0.527460  0.656540  0.147290  Uiso  0.025330
    O1  O2-  1.0000  0.650410  0.752910  0.122740  Uiso  0.025330
    O1  O2-  1.0000  0.773360  0.849290  0.098190  Uiso  0.025330
    O1  O2-  1.0000  0.896310  0.945660  0.073640  Uiso  0.025330
    O1  O2-  1.0000  0.030740  0.024090  0.233200  Uiso  0.025330
    O1  O2-  1.0000  0.153690  0.120470  0.208650  Uiso  0.025330
    O1  O2-  1.0000  0.276640  0.216840  0.184110  Uiso  0.025330
    O1  O2-  1.0000  0.399590  0.313210  0.159560  Uiso  0.025330
    O1  O2-  1.0000  0.522540  0.409590  0.135010  Uiso  0.025330
    O1  O2-  1.0000  0.645490  0.505960  0.110460  Uiso  0.025330
    O1  O2-  1.0000  0.768440  0.602330  0.085920  Uiso  0.025330
    O1  O2-  1.0000  0.891390  0.698700  0.061370  Uiso  0.025330
    O1  O2-  1.0000  0.394670  0.066260  0.147290  Uiso  0.025330
    O1  O2-  1.0000  0.517620  0.162630  0.122740  Uiso  0.025330
    O1  O2-  1.0000  0.640570  0.259000  0.098190  Uiso  0.025330
    O1  O2-  1.0000  0.763520  0.355380  0.073640  Uiso  0.025330
    O1  O2-  1.0000  0.886470  0.451750  0.049100  Uiso  0.025330
    O1  O2-  1.0000  0.635650  0.012050  0.085920  Uiso  0.025330
    O1  O2-  1.0000  0.758600  0.108420  0.061370  Uiso  0.025330
    O1  O2-  1.0000  0.881550  0.204790  0.036820  Uiso  0.025330
    O1  O2-  1.0000  0.999590  0.054210  0.000000  Uiso  0.025330
    O1  O2-  1.0000  0.045490  0.764960  0.196380  Uiso  0.025330
    O1  O2-  1.0000  0.168440  0.861330  0.171830  Uiso  0.025330
    O1  O2-  1.0000  0.291390  0.957710  0.147290  Uiso  0.025330
    O1  O2-  1.0000  0.040570  0.518000  0.184110  Uiso  0.025330
    O1  O2-  1.0000  0.163520  0.614380  0.159560  Uiso  0.025330
    O1  O2-  1.0000  0.286470  0.710750  0.135010  Uiso  0.025330
    O1  O2-  1.0000  0.409420  0.807120  0.110460  Uiso  0.025330
    O1  O2-  1.0000  0.532370  0.903500  0.085920  Uiso  0.025330
    O1  O2-  1.0000  0.655320  0.999870  0.061370  Uiso  0.025330
    O1  O2-  1.0000  0.035660  0.271050  0.171830  Uiso  0.025330
    O1  O2-  1.0000  0.158610  0.367420  0.147290  Uiso  0.025330
    O1  O2-  1.0000  0.281560  0.463790  0.122740  Uiso  0.025330
    O1  O2-  1.0000  0.404510  0.560170  0.098190  Uiso  0.025330
    O1  O2-  1.0000  0.527460  0.656540  0.073640  Uiso  0.025330
    O1  O2-  1.0000  0.650410  0.752910  0.049100  Uiso  0.025330
    O1  O2-  1.0000  0.773360  0.849290  0.024550  Uiso  0.025330
    O1  O2-  1.0000  0.896310  0.945660  0.000000  Uiso  0.025330
    O1  O2-  1.0000  0.030740  0.024090  0.159560  Uiso  0.025330
    O1  O2-  1.0000  0.153690  0.120470  0.135010  Uiso  0.025330
    O1  O2-  1.0000  0.276640  0.216840  0.110460  Uiso  0.025330
    O1  O2-  1.0000  0.399590  0.313210  0.085920  Uiso  0.025330
    O1  O2-  1.0000  0.522540  0.409590  0.061370  Uiso  0.025330
    O1  O2-  1.0000  0.645490  0.505960  0.036820  Uiso  0.025330
    O1  O2-  1.0000  0.768440  0.602330  0.012270  Uiso  0.025330
    O1  O2-  1.0000  0.394670  0.066260  0.073640  Uiso  0.025330
    O1  O2-  1.0000  0.517620  0.162630  0.049100  Uiso  0.025330
    O1  O2-  1.0000  0.640570  0.259000  0.024550  Uiso  0.025330
    O1  O2-  1.0000  0.763520  0.355380  0.000000  Uiso  0.025330
    O1  O2-  1.0000  0.635650  0.012050  0.012270  Uiso  0.025330
    O1  O2-  1.0000  0.045490  0.764960  0.122740  Uiso  0.025330
    O1  O2-  1.0000  0.168440  0.861330  0.098190  Uiso  0.025330
    O1  O2-  1.0000  0.291390  0.957710  0.073640  Uiso  0.025330
    O1  O2-  1.0000  0.040570  0.518000  0.110460  Uiso  0.025330
    O1  O2-  1.0000  0.163520  0.614380  0.085920  Uiso  0.025330
    O1  O2-  1.0000  0.286470  0.710750  0.061370  Uiso  0.025330
    O1  O2-  1.0000  0.409420  0.807120  0.036820  Uiso  0.025330
    O1  O2-  1.0000  0.532370  0.903500  0.012270  Uiso  0.025330
    O1  O2-  1.0000  0.035660  0.271050  0.098190  Uiso  0.025330
    O1  O2-  1.0000  0.158610  0.367420  0.073640  Uiso  0.025330
    O1  O2-  1.0000  0.281560  0.463790  0.049100  Uiso  0.025330
    O1  O2-  1.0000  0.404510  0.560170  0.024550  Uiso  0.025330
    O1  O2-  1.0000  0.527460  0.656540  0.000000  Uiso  0.025330
    O1  O2-  1.0000  0.030740  0.024090  0.085920  Uiso  0.025330
    O1  O2-  1.0000  0.153690  0.120470  0.061370  Uiso  0.025330
    O1  O2-  1.0000  0.276640  0.216840  0.036820  Uiso  0.025330
    O1  O2-  1.0000  0.399590  0.313210  0.012270  Uiso  0.025330
    O1  O2-  1.0000  0.394670  0.066260  0.000000  Uiso  0.025330
    O1  O2-  1.0000  0.045490  0.764960  0.049100  Uiso  0.025330
    O1  O2-  1.0000  0.168440  0.861330  0.024550  Uiso  0.025330
    O1  O2-  1.0000  0.291390  0.957710  0.000000  Uiso  0.025330
    O1  O2-  1.0000  0.040570  0.518000  0.036820  Uiso  0.025330
    O1  O2-  1.0000  0.163520  0.614380  0.012270  Uiso  0.025330
    O1  O2-  1.0000  0.035660  0.271050  0.024550  Uiso  0.025330
    O1  O2-  1.0000  0.158610  0.367420  0.000000  Uiso  0.025330
    O1  O2-  1.0000  0.030740  0.024090  0.012270  Uiso  0.025330
    O1  O2-  1.0000  0.955320  0.870370  0.975760  Uiso  0.025330
    O1  O2-  1.0000  0.827460  0.527040  0.988040  Uiso  0.025330
    O1  O2-  1.0000  0.950410  0.623410  0.963490  Uiso  0.025330
    O1  O2-  1.0000  0.822540  0.280080  0.975760  Uiso  0.025330
    O1  O2-  1.0000  0.945490  0.376460  0.951220  Uiso  0.025330
    O1  O2-  1.0000  0.817620  0.033130  0.963490  Uiso  0.025330
    O1  O2-  1.0000  0.940570  0.129500  0.938940  Uiso  0.025330
    O1  O2-  1.0000  0.591390  0.828210  0.988040  Uiso  0.025330
    O1  O2-  1.0000  0.714340  0.924580  0.963490  Uiso  0.025330
    O1  O2-  1.0000  0.586470  0.581250  0.975760  Uiso  0.025330
    O1  O2-  1.0000  0.709420  0.677620  0.951220  Uiso  0.025330
    O1  O2-  1.0000  0.832370  0.774000  0.926670  Uiso  0.025330
    O1  O2-  1.0000  0.955320  0.870370  0.902120  Uiso  0.025330
    O1  O2-  1.0000  0.458600  0.237920  0.988040  Uiso  0.025330
    O1  O2-  1.0000  0.581550  0.334290  0.963490  Uiso  0.025330
    O1  O2-  1.0000  0.704510  0.430670  0.938940  Uiso  0.025330
    O1  O2-  1.0000  0.827460  0.527040  0.914400  Uiso  0.025330
    O1  O2-  1.0000  0.950410  0.623410  0.889850  Uiso  0.025330
    O1  O2-  1.0000  0.576640  0.087340  0.951220  Uiso  0.025330
    O1  O2-  1.0000  0.699590  0.183710  0.926670  Uiso  0.025330
    O1  O2-  1.0000  0.822540  0.280080  0.902120  Uiso  0.025330
    O1  O2-  1.0000  0.945490  0.376460  0.877570  Uiso  0.025330
    O1  O2-  1.0000  0.817620  0.033130  0.889850  Uiso  0.025330
    O1  O2-  1.0000  0.940570  0.129500  0.865300  Uiso  0.025330
    O1  O2-  1.0000  0.350410  0.882410  0.975760  Uiso  0.025330
    O1  O2-  1.0000  0.473360  0.978790  0.951220  Uiso  0.025330
    O1  O2-  1.0000  0.222540  0.539090  0.988040  Uiso  0.025330
    O1  O2-  1.0000  0.345490  0.635460  0.963490  Uiso  0.025330
    O1  O2-  1.0000  0.468440  0.731830  0.938940  Uiso  0.025330
    O1  O2-  1.0000  0.591390  0.828210  0.914400  Uiso  0.025330
    O1  O2-  1.0000  0.714340  0.924580  0.889850  Uiso  0.025330
    O1  O2-  1.0000  0.217620  0.292130  0.975760  Uiso  0.025330
    O1  O2-  1.0000  0.340570  0.388500  0.951220  Uiso  0.025330
    O1  O2-  1.0000  0.463520  0.484880  0.926670  Uiso  0.025330
    O1  O2-  1.0000  0.586470  0.581250  0.902120  Uiso  0.025330
    O1  O2-  1.0000  0.709420  0.677620  0.877570  Uiso  0.025330
    O1  O2-  1.0000  0.832370  0.774000  0.853030  Uiso  0.025330
    O1  O2-  1.0000  0.955320  0.870370  0.828480  Uiso  0.025330
    O1  O2-  1.0000  0.212700  0.045170  0.963490  Uiso  0.025330
    O1  O2-  1.0000  0.335650  0.141550  0.938940  Uiso  0.025330
    O1  O2-  1.0000  0.458600  0.237920  0.914400  Uiso  0.025330
    O1  O2-  1.0000  0.581550  0.334290  0.889850  Uiso  0.025330
    O1  O2-  1.0000  0.704510  0.430670  0.865300  Uiso  0.025330
    O1  O2-  1.0000  0.827460  0.527040  0.840750  Uiso  0.025330
    O1  O2-  1.0000  0.950410  0.623410  0.816200  Uiso  0.025330
    O1  O2-  1.0000  0.576640  0.087340  0.877570  Uiso  0.025330
    O1  O2-  1.0000  0.699590  0.183710  0.853030  Uiso  0.025330
    O1  O2-  1.0000  0.822540  0.280080  0.828480  Uiso  0.025330
    O1  O2-  1.0000  0.945490  0.376460  0.803930  Uiso  0.025330
    O1  O2-  1.0000  0.817620  0.033130  0.816200  Uiso  0.025330
    O1  O2-  1.0000  0.940570  0.129500  0.791660  Uiso  0.025330
    O1  O2-  1.0000  0.109430  0.936620  0.963490  Uiso  0.025330
    O1  O2-  1.0000  0.104510  0.689670  0.951220  Uiso  0.025330
    O1  O2-  1.0000  0.227460  0.786040  0.926670  Uiso  0.025330
    O1  O2-  1.0000  0.350410  0.882410  0.902120  Uiso  0.025330
    O1  O2-  1.0000  0.473360  0.978790  0.877570  Uiso  0.025330
    O1  O2-  1.0000  0.099590  0.442710  0.938940  Uiso  0.025330
    O1  O2-  1.0000  0.222540  0.539090  0.914400  Uiso  0.025330
    O1  O2-  1.0000  0.345490  0.635460  0.889850  Uiso  0.025330
    O1  O2-  1.0000  0.468440  0.731830  0.865300  Uiso  0.025330
    O1  O2-  1.0000  0.591390  0.828210  0.840750  Uiso  0.025330
    O1  O2-  1.0000  0.714340  0.924580  0.816200  Uiso  0.025330
    O1  O2-  1.0000  0.094670  0.195760  0.926670  Uiso  0.025330
    O1  O2-  1.0000  0.217620  0.292130  0.902120  Uiso  0.025330
    O1  O2-  1.0000  0.340570  0.388500  0.877570  Uiso  0.025330
    O1  O2-  1.0000  0.463520  0.484880  0.853030  Uiso  0.025330
    O1  O2-  1.0000  0.586470  0.581250  0.828480  Uiso  0.025330
    O1  O2-  1.0000  0.709420  0.677620  0.803930  Uiso  0.025330
    O1  O2-  1.0000  0.832370  0.774000  0.779380  Uiso  0.025330
    O1  O2-  1.0000  0.955320  0.870370  0.754840  Uiso  0.025330
    O1  O2-  1.0000  0.212700  0.045170  0.889850  Uiso  0.025330
    O1  O2-  1.0000  0.335650  0.141550  0.865300  Uiso  0.025330
    O1  O2-  1.0000  0.458600  0.237920  0.840750  Uiso  0.025330
    O1  O2-  1.0000  0.581550  0.334290  0.816200  Uiso  0.025330
    O1  O2-  1.0000  0.704510  0.430670  0.791660  Uiso  0.025330
    O1  O2-  1.0000  0.827460  0.527040  0.767110  Uiso  0.025330
    O1  O2-  1.0000  0.950410  0.623410  0.742560  Uiso  0.025330
    O1  O2-  1.0000  0.576640  0.087340  0.803930  Uiso  0.025330
    O1  O2-  1.0000  0.699590  0.183710  0.779380  Uiso  0.025330
    O1  O2-  1.0000  0.822540  0.280080  0.754840  Uiso  0.025330
    O1  O2-  1.0000  0.945490  0.376460  0.730290  Uiso  0.025330
    O1  O2-  1.0000  0.817620  0.033130  0.742560  Uiso  0.025330
    O1  O2-  1.0000  0.940570  0.129500  0.718010  Uiso  0.025330
    O1  O2-  1.0000  0.109430  0.936620  0.889850  Uiso  0.025330
    O1  O2-  1.0000  0.104510  0.689670  0.877570  Uiso  0.025330
    O1  O2-  1.0000  0.227460  0.786040  0.853030  Uiso  0.025330
    O1  O2-  1.0000  0.350410  0.882410  0.828480  Uiso  0.025330
    O1  O2-  1.0000  0.473360  0.978790  0.803930  Uiso  0.025330
    O1  O2-  1.0000  0.099590  0.442710  0.865300  Uiso  0.025330
    O1  O2-  1.0000  0.222540  0.539090  0.840750  Uiso  0.025330
    O1  O2-  1.0000  0.345490  0.635460  0.816200  Uiso  0.025330
    O1  O2-  1.0000  0.468440  0.731830  0.791660  Uiso  0.025330
    O1  O2-  1.0000  0.591390  0.828210  0.767110  Uiso  0.025330
    O1  O2-  1.0000  0.714340  0.924580  0.742560  Uiso  0.025330
    O1  O2-  1.0000  0.094670  0.195760  0.853030  Uiso  0.025330
    O1  O2-  1.0000  0.217620  0.292130  0.828480  Uiso  0.025330
    O1  O2-  1.0000  0.340570  0.388500  0.803930  Uiso  0.025330
    O1  O2-  1.0000  0.463520  0.484880  0.779380  Uiso  0.025330
    O1  O2-  1.0000  0.586470  0.581250  0.754840  Uiso  0.025330
    O1  O2-  1.0000  0.709420  0.677620  0.730290  Uiso  0.025330
    O1  O2-  1.0000  0.832370  0.774000  0.705740  Uiso  0.025330
    O1  O2-  1.0000  0.955320  0.870370  0.681190  Uiso  0.025330
    O1  O2-  1.0000  0.212700  0.045170  0.816200  Uiso  0.025330
    O1  O2-  1.0000  0.335650  0.141550  0.791660  Uiso  0.025330
    O1  O2-  1.0000  0.458600  0.237920  0.767110  Uiso  0.025330
    O1  O2-  1.0000  0.581550  0.334290  0.742560  Uiso  0.025330
    O1  O2-  1.0000  0.704510  0.430670  0.718010  Uiso  0.025330
    O1  O2-  1.0000  0.827460  0.527040  0.693470  Uiso  0.025330
    O1  O2-  1.0000  0.950410  0.623410  0.668920  Uiso  0.025330
    O1  O2-  1.0000  0.576640  0.087340  0.730290  Uiso  0.025330
    O1  O2-  1.0000  0.699590  0.183710  0.705740  Uiso  0.025330
    O1  O2-  1.0000  0.822540  0.280080  0.681190  Uiso  0.025330
    O1  O2-  1.0000  0.945490  0.376460  0.656650  Uiso  0.025330
    O1  O2-  1.0000  0.817620  0.033130  0.668920  Uiso  0.025330
    O1  O2-  1.0000  0.940570  0.129500  0.644370  Uiso  0.025330
    O1  O2-  1.0000  0.109430  0.936620  0.816200  Uiso  0.025330
    O1  O2-  1.0000  0.104510  0.689670  0.803930  Uiso  0.025330
    O1  O2-  1.0000  0.227460  0.786040  0.779380  Uiso  0.025330
    O1  O2-  1.0000  0.350410  0.882410  0.754840  Uiso  0.025330
    O1  O2-  1.0000  0.473360  0.978790  0.730290  Uiso  0.025330
    O1  O2-  1.0000  0.099590  0.442710  0.791660  Uiso  0.025330
    O1  O2-  1.0000  0.222540  0.539090  0.767110  Uiso  0.025330
    O1  O2-  1.0000  0.345490  0.635460  0.742560  Uiso  0.025330
    O1  O2-  1.0000  0.468440  0.731830  0.718010  Uiso  0.025330
    O1  O2-  1.0000  0.591390  0.828210  0.693470  Uiso  0.025330
    O1  O2-  1.0000  0.714340  0.924580  0.668920  Uiso  0.025330
    O1  O2-  1.0000  0.094670  0.195760  0.779380  Uiso  0.025330
    O1  O2-  1.0000  0.217620  0.292130  0.754840  Uiso  0.025330
    O1  O2-  1.0000  0.340570  0.388500  0.730290  Uiso  0.025330
    O1  O2-  1.0000  0.463520  0.484880  0.705740  Uiso  0.025330
    O1  O2-  1.0000  0.586470  0.581250  0.681190  Uiso  0.025330
    O1  O2-  1.0000  0.709420  0.677620  0.656650  Uiso  0.025330
    O1  O2-  1.0000  0.832370  0.774000  0.632100  Uiso  0.025330
    O1  O2-  1.0000  0.955320  0.870370  0.607550  Uiso  0.025330
    O1  O2-  1.0000  0.212700  0.045170  0.742560  Uiso  0.025330
    O1  O2-  1.0000  0.335650  0.141550  0.718010  Uiso  0.025330
    O1  O2-  1.0000  0.458600  0.237920  0.693470  Uiso  0.025330
    O1  O2-  1.0000  0.581550  0.334290  0.668920  Uiso  0.025330
    O1  O2-  1.0000  0.704510  0.430670  0.644370  Uiso  0.025330
    O1  O2-  1.0000  0.827460  0.527040  0.619820  Uiso  0.025330
    O1  O2-  1.0000  0.950410  0.623410  0.595280  Uiso  0.025330
    O1  O2-  1.0000  0.576640  0.087340  0.656650  Uiso  0.025330
    O1  O2-  1.0000  0.699590  0.183710  0.632100  Uiso  0.025330
    O1  O2-  1.0000  0.822540  0.280080  0.607550  Uiso  0.025330
    O1  O2-  1.0000  0.945490  0.376460  0.583000  Uiso  0.025330
    O1  O2-  1.0000  0.817620  0.033130  0.595280  Uiso  0.025330
    O1  O2-  1.0000  0.940570  0.129500  0.570730  Uiso  0.025330
    O1  O2-  1.0000  0.109430  0.936620  0.742560  Uiso  0.025330
    O1  O2-  1.0000  0.104510  0.689670  0.730290  Uiso  0.025330
    O1  O2-  1.0000  0.227460  0.786040  0.705740  Uiso  0.025330
    O1  O2-  1.0000  0.350410  0.882410  0.681190  Uiso  0.025330
    O1  O2-  1.0000  0.473360  0.978790  0.656650  Uiso  0.025330
    O1  O2-  1.0000  0.099590  0.442710  0.718010  Uiso  0.025330
    O1  O2-  1.0000  0.222540  0.539090  0.693470  Uiso  0.025330
    O1  O2-  1.0000  0.345490  0.635460  0.668920  Uiso  0.025330
    O1  O2-  1.0000  0.468440  0.731830  0.644370  Uiso  0.025330
    O1  O2-  1.0000  0.591390  0.828210  0.619820  Uiso  0.025330
    O1  O2-  1.0000  0.714340  0.924580  0.595280  Uiso  0.025330
    O1  O2-  1.0000  0.094670  0.195760  0.705740  Uiso  0.025330
    O1  O2-  1.0000  0.217620  0.292130  0.681190  Uiso  0.025330
    O1  O2-  1.0000  0.340570  0.388500  0.656650  Uiso  0.025330
    O1  O2-  1.0000  0.463520  0.484880  0.632100  Uiso  0.025330
    O1  O2-  1.0000  0.586470  0.581250  0.607550  Uiso  0.025330
    O1  O2-  1.0000  0.709420  0.677620  0.583000  Uiso  0.025330
    O1  O2-  1.0000  0.832370  0.774000  0.558460  Uiso  0.025330
    O1  O2-  1.0000  0.955320  0.870370  0.533910  Uiso  0.025330
    O1  O2-  1.0000  0.212700  0.045170  0.668920  Uiso  0.025330
    O1  O2-  1.0000  0.335650  0.141550  0.644370  Uiso  0.025330
    O1  O2-  1.0000  0.458600  0.237920  0.619820  Uiso  0.025330
    O1  O2-  1.0000  0.581550  0.334290  0.595280  Uiso  0.025330
    O1  O2-  1.0000  0.704510  0.430670  0.570730  Uiso  0.025330
    O1  O2-  1.0000  0.827460  0.527040  0.546180  Uiso  0.025330
    O1  O2-  1.0000  0.950410  0.623410  0.521630  Uiso  0.025330
    O1  O2-  1.0000  0.576640  0.087340  0.583000  Uiso  0.025330
    O1  O2-  1.0000  0.699590  0.183710  0.558460  Uiso  0.025330
    O1  O2-  1.0000  0.822540  0.280080  0.533910  Uiso  0.025330
    O1  O2-  1.0000  0.945490  0.376460  0.509360  Uiso  0.025330
    O1  O2-  1.0000  0.817620  0.033130  0.521630  Uiso  0.025330
    O1  O2-  1.0000  0.940570  0.129500  0.497090  Uiso  0.025330
    O1  O2-  1.0000  0.109430  0.936620  0.668920  Uiso  0.025330
    O1  O2-  1.0000  0.104510  0.689670  0.656650  Uiso  0.025330
    O1  O2-  1.0000  0.227460  0.786040  0.632100  Uiso  0.025330
    O1  O2-  1.0000  0.350410  0.882410  0.607550  Uiso  0.025330
    O1  O2-  1.0000  0.473360  0.978790  0.583000  Uiso  0.025330
    O1  O2-  1.0000  0.099590  0.442710  0.644370  Uiso  0.025330
    O1  O2-  1.0000  0.222540  0.539090  0.619820  Uiso  0.025330
    O1  O2-  1.0000  0.345490  0.635460  0.595280  Uiso  0.025330
    O1  O2-  1.0000  0.468440  0.731830  0.570730  Uiso  0.025330
    O1  O2-  1.0000  0.591390  0.828210  0.546180  Uiso  0.025330
    O1  O2-  1.0000  0.714340  0.924580  0.521630  Uiso  0.025330
    O1  O2-  1.0000  0.094670  0.195760  0.632100  Uiso  0.025330
    O1  O2-  1.0000  0.217620  0.292130  0.607550  Uiso  0.025330
    O1  O2-  1.0000  0.340570  0.388500  0.583000  Uiso  0.025330
    O1  O2-  1.0000  0.463520  0.484880  0.558460  Uiso  0.025330
    O1  O2-  1.0000  0.586470  0.581250  0.533910  Uiso  0.025330
    O1  O2-  1.0000  0.709420  0.677620  0.509360  Uiso  0.025330
    O1  O2-  1.0000  0.832370  0.774000  0.484810  Uiso  0.025330
    O1  O2-  1.0000  0.955320  0.870370  0.460270  Uiso  0.025330
    O1  O2-  1.0000  0.212700  0.045170  0.595280  Uiso  0.025330
    O1  O2-  1.0000  0.335650  0.141550  0.570730  Uiso  0.025330
    O1  O2-  1.0000  0.458600  0.237920  0.546180  Uiso  0.025330
    O1  O2-  1.0000  0.581550  0.334290  0.521630  Uiso  0.025330
    O1  O2-  1.0000  0.704510  0.430670  0.497090  Uiso  0.025330
    O1  O2-  1.0000  0.827460  0.527040  0.472540  Uiso  0.025330
    O1  O2-  1.0000  0.950410  0.623410  0.447990  Uiso  0.025330
    O1  O2-  1.0000  0.576640  0.087340  0.509360  Uiso  0.025330
    O1  O2-  1.0000  0.699590  0.183710  0.484810  Uiso  0.025330
    O1  O2-  1.0000  0.822540  0.280080  0.460270  Uiso  0.025330
    O1  O2-  1.0000  0.945490  0.376460  0.435720  Uiso  0.025330
    O1  O2-  1.0000  0.817620  0.033130  0.447990  Uiso  0.025330
    O1  O2-  1.0000  0.940570  0.129500  0.423440  Uiso  0.025330
    O1  O2-  1.0000  0.109430  0.936620  0.595280  Uiso  0.025330
    O1  O2-  1.0000  0.104510  0.689670  0.583000  Uiso  0.025330
    O1  O2-  1.0000  0.227460  0.786040  0.558460  Uiso  0.025330
    O1  O2-  1.0000  0.350410  0.882410  0.533910  Uiso  0.025330
    O1  O2-  1.0000  0.473360  0.978790  0.509360  Uiso  0.025330
    O1  O2-  1.0000  0.099590  0.442710  0.570730  Uiso  0.025330
    O1  O2-  1.0000  0.222540  0.539090  0.546180  Uiso  0.025330
    O1  O2-  1.0000  0.345490  0.635460  0.521630  Uiso  0.025330
    O1  O2-  1.0000  0.468440  0.731830  0.497090  Uiso  0.025330
    O1  O2-  1.0000  0.591390  0.828210  0.472540  Uiso  0.025330
    O1  O2-  1.0000  0.714340  0.924580  0.447990  Uiso  0.025330
    O1  O2-  1.0000  0.094670  0.195760  0.558460  Uiso  0.025330
    O1  O2-  1.0000  0.217620  0.292130  0.533910  Uiso  0.025330
    O1  O2-  1.0000  0.340570  0.388500  0.509360  Uiso  0.025330
    O1  O2-  1.0000  0.463520  0.484880  0.484810  Uiso  0.025330
    O1  O2-  1.0000  0.586470  0.581250  0.460270  Uiso  0.025330
    O1  O2-  1.0000  0.709420  0.677620  0.435720  Uiso  0.025330
    O1  O2-  1.0000  0.832370  0.774000  0.411170  Uiso  0.025330
    O1  O2-  1.0000  0.955320  0.870370  0.386620  Uiso  0.025330
    O1  O2-  1.0000  0.212700  0.045170  0.521630  Uiso  0.025330
    O1  O2-  1.0000  0.335650  0.141550  0.497090  Uiso  0.025330
    O1  O2-  1.0000  0.458600  0.237920  0.472540  Uiso  0.025330
    O1  O2-  1.0000  0.581550  0.334290  0.447990  Uiso  0.025330
    O1  O2-  1.0000  0.704510  0.430670  0.423440  Uiso  0.025330
    O1  O2-  1.0000  0.827460  0.527040  0.398900  Uiso  0.025330
    O1  O2-  1.0000  0.950410  0.623410  0.374350  Uiso  0.025330
    O1  O2-  1.0000  0.576640  0.087340  0.435720  Uiso  0.025330
    O1  O2-  1.0000  0.699590  0.183710  0.411170  Uiso  0.025330
    O1  O2-  1.0000  0.822540  0.280080  0.386620  Uiso  0.025330
    O1  O2-  1.0000  0.945490  0.376460  0.362080  Uiso  0.025330
    O1  O2-  1.0000  0.817620  0.033130  0.374350  Uiso  0.025330
    O1  O2-  1.0000  0.940570  0.129500  0.349800  Uiso  0.025330
    O1  O2-  1.0000  0.109430  0.936620  0.521630  Uiso  0.025330
    O1  O2-  1.0000  0.104510  0.689670  0.509360  Uiso  0.025330
    O1  O2-  1.0000  0.227460  0.786040  0.484810  Uiso  0.025330
    O1  O2-  1.0000  0.350410  0.882410  0.460270  Uiso  0.025330
    O1  O2-  1.0000  0.473360  0.978790  0.435720  Uiso  0.025330
    O1  O2-  1.0000  0.099590  0.442710  0.497090  Uiso  0.025330
    O1  O2-  1.0000  0.222540  0.539090  0.472540  Uiso  0.025330
    O1  O2-  1.0000  0.345490  0.635460  0.447990  Uiso  0.025330
    O1  O2-  1.0000  0.468440  0.731830  0.423440  Uiso  0.025330
    O1  O2-  1.0000  0.591390  0.828210  0.398900  Uiso  0.025330
    O1  O2-  1.0000  0.714340  0.924580  0.374350  Uiso  0.025330
    O1  O2-  1.0000  0.094670  0.195760  0.484810  Uiso  0.025330
    O1  O2-  1.0000  0.217620  0.292130  0.460270  Uiso  0.025330
    O1  O2-  1.0000  0.340570  0.388500  0.435720  Uiso  0.025330
    O1  O2-  1.0000  0.463520  0.484880  0.411170  Uiso  0.025330
    O1  O2-  1.0000  0.586470  0.581250  0.386620  Uiso  0.025330
    O1  O2-  1.0000  0.709420  0.677620  0.362080  Uiso  0.025330
    O1  O2-  1.0000  0.832370  0.774000  0.337530  Uiso  0.025330
    O1  O2-  1.0000  0.955320  0.870370  0.312980  Uiso  0.025330
    O1  O2-  1.0000  0.212700  0.045170  0.447990  Uiso  0.025330
    O1  O2-  1.0000  0.335650  0.141550  0.423440  Uiso  0.025330
    O1  O2-  1.0000  0.458600  0.237920  0.398900  Uiso  0.025330
    O1  O2-  1.0000  0.581550  0.334290  0.374350  Uiso  0.025330
    O1  O2-  1.0000  0.704510  0.430670  0.349800  Uiso  0.025330
    O1  O2-  1.0000  0.827460  0.527040  0.325250  Uiso  0.025330
    O1  O2-  1.0000  0.950410  0.623410  0.300710  Uiso  0.025330
    O1  O2-  1.0000  0.576640  0.087340  0.362080  Uiso  0.025330
    O1  O2-  1.0000  0.699590  0.183710  0.337530  Uiso  0.025330
    O1  O2-  1.0000  0.822540  0.280080  0.312980  Uiso  0.025330
    O1  O2-  1.0000  0.945490  0.376460  0.288430  Uiso  0.025330
    O1  O2-  1.0000  0.817620  0.033130  0.300710  Uiso  0.025330
    O1  O2-  1.0000  0.940570  0.129500  0.276160  Uiso  0.025330
    O1  O2-  1.0000  0.109430  0.936620  0.447990  Uiso  0.025330
    O1  O2-  1.0000  0.104510  0.689670  0.435720  Uiso  0.025330
    O1  O2-  1.0000  0.227460  0.786040  0.411170  Uiso  0.025330
    O1  O2-  1.0000  0.350410  0.882410  0.386620  Uiso  0.025330
    O1  O2-  1.0000  0.473360  0.978790  0.362080  Uiso  0.025330
    O1  O2-  1.0000  0.099590  0.442710  0.423440  Uiso  0.025330
    O1  O2-  1.0000  0.222540  0.539090  0.398900  Uiso  0.025330
    O1  O2-  1.0000  0.345490  0.635460  0.374350  Uiso  0.025330
    O1  O2-  1.0000  0.468440  0.731830  0.349800  Uiso  0.025330
    O1  O2-  1.0000  0.591390  0.828210  0.325250  Uiso  0.025330
    O1  O2-  1.0000  0.714340  0.924580  0.300710  Uiso  0.025330
    O1  O2-  1.0000  0.094670  0.195760  0.411170  Uiso  0.025330
    O1  O2-  1.0000  0.217620  0.292130  0.386620  Uiso  0.025330
    O1  O2-  1.0000  0.340570  0.388500  0.362080  Uiso  0.025330
    O1  O2-  1.0000  0.463520  0.484880  0.337530  Uiso  0.025330
    O1  O2-  1.0000  0.586470  0.581250  0.312980  Uiso  0.025330
    O1  O2-  1.0000  0.709420  0.677620  0.288430  Uiso  0.025330
    O1  O2-  1.0000  0.832370  0.774000  0.263890  Uiso  0.025330
    O1  O2-  1.0000  0.955320  0.870370  0.239340  Uiso  0.025330
    O1  O2-  1.0000  0.212700  0.045170  0.374350  Uiso  0.025330
    O1  O2-  1.0000  0.335650  0.141550  0.349800  Uiso  0.025330
    O1  O2-  1.0000  0.458600  0.237920  0.325250  Uiso  0.025330
    O1  O2-  1.0000  0.581550  0.334290  0.300710  Uiso  0.025330
    O1  O2-  1.0000  0.704510  0.430670  0.276160  Uiso  0.025330
    O1  O2-  1.0000  0.827460  0.527040  0.251610  Uiso  0.025330
    O1  O2-  1.0000  0.950410  0.623410  0.227060  Uiso  0.025330
    O1  O2-  1.0000  0.576640  0.087340  0.288430  Uiso  0.025330
    O1  O2-  1.0000  0.699590  0.183710  0.263890  Uiso  0.025330
    O1  O2-  1.0000  0.822540  0.280080  0.239340  Uiso  0.025330
    O1  O2-  1.0000  0.945490  0.376460  0.214790  Uiso  0.025330
    O1  O2-  1.0000  0.817620  0.033130  0.227060  Uiso  0.025330
    O1  O2-  1.0000  0.940570  0.129500  0.202520  Uiso  0.025330
    O1  O2-  1.0000  0.109430  0.936620  0.374350  Uiso  0.025330
    O1  O2-  1.0000  0.104510  0.689670  0.362080  Uiso  0.025330
    O1  O2-  1.0000  0.227460  0.786040  0.337530  Uiso  0.025330
    O1  O2-  1.0000  0.350410  0.882410  0.312980  Uiso  0.025330
    O1  O2-  1.0000  0.473360  0.978790  0.288430  Uiso  0.025330
    O1  O2-  1.0000  0.099590  0.442710  0.349800  Uiso  0.025330
    O1  O2-  1.0000  0.222540  0.539090  0.325250  Uiso  0.025330
    O1  O2-  1.0000  0.345490  0.635460  0.300710  Uiso  0.025330
    O1  O2-  1.0000  0.468440  0.731830  0.276160  Uiso  0.025330
    O1  O2-  1.0000  0.591390  0.828210  0.251610  Uiso  0.025330
    O1  O2-  1.0000  0.714340  0.924580  0.227060  Uiso  0.025330
    O1  O2-  1.0000  0.094670  0.195760  0.337530  Uiso  0.025330
    O1  O2-  1.0000  0.217620  0.292130  0.312980  Uiso  0.025330
    O1  O2-  1.0000  0.340570  0.388500  0.288430  Uiso  0.025330
    O1  O2-  1.0000  0.463520  0.484880  0.263890  Uiso  0.025330
    O1  O2-  1.0000  0.586470  0.581250  0.239340  Uiso  0.025330
    O1  O2-  1.0000  0.709420  0.677620  0.214790  Uiso  0.025330
    O1  O2-  1.0000  0.832370  0.774000  0.190240  Uiso  0.025330
    O1  O2-  1.0000  0.955320  0.870370  0.165700  Uiso  0.025330
    O1  O2-  1.0000  0.212700  0.045170  0.300710  Uiso  0.025330
    O1  O2-  1.0000  0.335650  0.141550  0.276160  Uiso  0.025330
    O1  O2-  1.0000  0.458600  0.237920  0.251610  Uiso  0.025330
    O1  O2-  1.0000  0.581550  0.334290  0.227060  Uiso  0.025330
    O1  O2-  1.0000  0.704510  0.430670  0.202520  Uiso  0.025330
    O1  O2-  1.0000  0.827460  0.527040  0.177970  Uiso  0.025330
    O1  O2-  1.0000  0.950410  0.623410  0.153420  Uiso  0.025330
    O1  O2-  1.0000  0.576640  0.087340  0.214790  Uiso  0.025330
    O1  O2-  1.0000  0.699590  0.183710  0.190240  Uiso  0.025330
    O1  O2-  1.0000  0.822540  0.280080  0.165700  Uiso  0.025330
    O1  O2-  1.0000  0.945490  0.376460  0.141150  Uiso  0.025330
    O1  O2-  1.0000  0.817620  0.033130  0.153420  Uiso  0.025330
    O1  O2-  1.0000  0.940570  0.129500  0.128870  Uiso  0.025330
    O1  O2-  1.0000  0.109430  0.936620  0.300710  Uiso  0.025330
    O1  O2-  1.0000  0.104510  0.689670  0.288430  Uiso  0.025330
    O1  O2-  1.0000  0.227460  0.786040  0.263890  Uiso  0.025330
    O1  O2-  1.0000  0.350410  0.882410  0.239340  Uiso  0.025330
    O1  O2-  1.0000  0.473360  0.978790  0.214790  Uiso  0.025330
    O1  O2-  1.0000  0.099590  0.442710  0.276160  Uiso  0.025330
    O1  O2-  1.0000  0.222540  0.539090  0.251610  Uiso  0.025330
    O1  O2-  1.0000  0.345490  0.635460  0.227060  Uiso  0.025330
    O1  O2-  1.0000  0.468440  0.731830  0.202520  Uiso  0.025330
    O1  O2-  1.0000  0.591390  0.828210  0.177970  Uiso  0.025330
    O1  O2-  1.0000  0.714340  0.924580  0.153420  Uiso  0.025330
    O1  O2-  1.0000  0.094670  0.195760  0.263890  Uiso  0.025330
    O1  O2-  1.0000  0.217620  0.292130  0.239340  Uiso  0.025330
    O1  O2-  1.0000  0.340570  0.388500  0.214790  Uiso  0.025330
    O1  O2-  1.0000  0.463520  0.484880  0.190240  Uiso  0.025330
    O1  O2-  1.0000  0.586470  0.581250  0.165700  Uiso  0.025330
    O1  O2-  1.0000  0.709420  0.677620  0.141150  Uiso  0.025330
    O1  O2-  1.0000  0.832370  0.774000  0.116600  Uiso  0.025330
    O1  O2-  1.0000  0.955320  0.870370  0.092050  Uiso  0.025330
    O1  O2-  1.0000  0.212700  0.045170  0.227060  Uiso  0.025330
    O1  O2-  1.0000  0.335650  0.141550  0.202520  Uiso  0.025330
    O1  O2-  1.0000  0.458600  0.237920  0.177970  Uiso  0.025330
    O1  O2-  1.0000  0.581550  0.334290  0.153420  Uiso  0.025330
    O1  O2-  1.0000  0.704510  0.430670  0.128870  Uiso  0.025330
    O1  O2-  1.0000  0.827460  0.527040  0.104330  Uiso  0.025330
    O1  O2-  1.0000  0.950410  0.623410  0.079780  Uiso  0.025330
    O1  O2-  1.0000  0.576640  0.087340  0.141150  Uiso  0.025330
    O1  O2-  1.0000  0.699590  0.183710  0.116600  Uiso  0.025330
    O1  O2-  1.0000  0.822540  0.280080  0.092050  Uiso  0.025330
    O1  O2-  1.0000  0.945490  0.376460  0.067510  Uiso  0.025330
    O1  O2-  1.0000  0.817620  0.033130  0.079780  Uiso  0.025330
    O1  O2-  1.0000  0.940570  0.129500  0.055230  Uiso  0.025330
    O1  O2-  1.0000  0.109430  0.936620  0.227060  Uiso  0.025330
    O1  O2-  1.0000  0.104510  0.689670  0.214790  Uiso  0.025330
    O1  O2-  1.0000  0.227460  0.786040  0.190240  Uiso  0.025330
    O1  O2-  1.0000  0.350410  0.882410  0.165700  Uiso  0.025330
    O1  O2-  1.0000  0.473360  0.978790  0.141150  Uiso  0.025330
    O1  O2-  1.0000  0.099590  0.442710  0.202520  Uiso  0.025330
    O1  O2-  1.0000  0.222540  0.539090  0.177970  Uiso  0.025330
    O1  O2-  1.0000  0.345490  0.635460  0.153420  Uiso  0.025330
    O1  O2-  1.0000  0.468440  0.731830  0.128870  Uiso  0.025330
    O1  O2-  1.0000  0.591390  0.828210  0.104330  Uiso  0.025330
    O1  O2-  1.0000  0.714340  0.924580  0.079780  Uiso  0.025330
    O1  O2-  1.0000  0.094670  0.195760  0.190240  Uiso  0.025330
    O1  O2-  1.0000  0.217620  0.292130  0.165700  Uiso  0.025330
    O1  O2-  1.0000  0.340570  0.388500  0.141150  Uiso  0.025330
    O1  O2-  1.0000  0.463520  0.484880  0.116600  Uiso  0.025330
    O1  O2-  1.0000  0.586470  0.581250  0.092050  Uiso  0.025330
    O1  O2-  1.0000  0.709420  0.677620  0.067510  Uiso  0.025330
    O1  O2-  1.0000  0.832370  0.774000  0.042960  Uiso  0.025330
    O1  O2-  1.0000  0.955320  0.870370  0.018410  Uiso  0.025330
    O1  O2-  1.0000  0.212700  0.045170  0.153420  Uiso  0.025330
    O1  O2-  1.0000  0.335650  0.141550  0.128870  Uiso  0.025330
    O1  O2-  1.0000  0.458600  0.237920  0.104330  Uiso  0.025330
    O1  O2-  1.0000  0.581550  0.334290  0.079780  Uiso  0.025330
    O1  O2-  1.0000  0.704510  0.430670  0.055230  Uiso  0.025330
    O1  O2-  1.0000  0.827460  0.527040  0.030680  Uiso  0.025330
    O1  O2-  1.0000  0.950410  0.623410  0.006140  Uiso  0.025330
    O1  O2-  1.0000  0.576640  0.087340  0.067510  Uiso  0.025330
    O1  O2-  1.0000  0.699590  0.183710  0.042960  Uiso  0.025330
    O1  O2-  1.0000  0.822540  0.280080  0.018410  Uiso  0.025330
    O1  O2-  1.0000  0.817620  0.033130  0.006140  Uiso  0.025330
    O1  O2-  1.0000  0.109430  0.936620  0.153420  Uiso  0.025330
    O1  O2-  1.0000  0.104510  0.689670  0.141150  Uiso  0.025330
    O1  O2-  1.0000  0.227460  0.786040  0.116600  Uiso  0.025330
    O1  O2-  1.0000  0.350410  0.882410  0.092050  Uiso  0.025330
    O1  O2-  1.0000  0.473360  0.978790  0.067510  Uiso  0.025330
    O1  O2-  1.0000  0.099590  0.442710  0.128870  Uiso  0.025330
    O1  O2-  1.0000  0.222540  0.539090  0.104330  Uiso  0.025330
    O1  O2-  1.0000  0.345490  0.635460  0.079780  Uiso  0.025330
    O1  O2-  1.0000  0.468440  0.731830  0.055230  Uiso  0.025330
    O1  O2-  1.0000  0.591390  0.828210  0.030680  Uiso  0.025330
    O1  O2-  1.0000  0.714340  0.924580  0.006140  Uiso  0.025330
    O1  O2-  1.0000  0.094670  0.195760  0.116600  Uiso  0.025330
    O1  O2-  1.0000  0.217620  0.292130  0.092050  Uiso  0.025330
    O1  O2-  1.0000  0.340570  0.388500  0.067510  Uiso  0.025330
    O1  O2-  1.0000  0.463520  0.484880  0.042960  Uiso  0.025330
    O1  O2-  1.0000  0.586470  0.581250  0.018410  Uiso  0.025330
    O1  O2-  1.0000  0.212700  0.045170  0.079780  Uiso  0.025330
    O1  O2-  1.0000  0.335650  0.141550  0.055230  Uiso  0.025330
    O1  O2-  1.0000  0.458600  0.237920  0.030680  Uiso  0.025330
    O1  O2-  1.0000  0.581550  0.334290  0.006140  Uiso  0.025330
    O1  O2-  1.0000  0.109430  0.936620  0.079780  Uiso  0.025330
    O1  O2-  1.0000  0.104510  0.689670  0.067510  Uiso  0.025330
    O1  O2-  1.0000  0.227460  0.786040  0.042960  Uiso  0.025330
    O1  O2-  1.0000  0.350410  0.882410  0.018410  Uiso  0.025330
    O1  O2-  1.0000  0.099590  0.442710  0.055230  Uiso  0.025330
    O1  O2-  1.0000  0.222540  0.539090  0.030680  Uiso  0.025330
    O1  O2-  1.0000  0.345490  0.635460  0.006140  Uiso  0.025330
    O1  O2-  1.0000  0.094670  0.195760  0.042960  Uiso  0.025330
    O1  O2-  1.0000  0.217620  0.292130  0.018410  Uiso  0.025330
    O1  O2-  1.0000  0.212700  0.045170  0.006140  Uiso  0.025330
    O1  O2-  1.0000  0.109430  0.936620  0.006140  Uiso  0.025330
    O1  O2-  1.0000  0.893850  0.822180  0.988040  Uiso  0.025330
    O1  O2-  1.0000  0.888930  0.575230  0.975760  Uiso  0.025330
    O1  O2-  1.0000  0.761060  0.231900  0.988040  Uiso  0.025330
    O1  O2-  1.0000  0.884010  0.328270  0.963490  Uiso  0.025330
    O1  O2-  1.0000  0.879090  0.081310  0.951220  Uiso  0.025330
    O1  O2-  1.0000  0.652870  0.876390  0.975760  Uiso  0.025330
    O1  O2-  1.0000  0.775820  0.972760  0.951220  Uiso  0.025330
    O1  O2-  1.0000  0.525000  0.533060  0.988040  Uiso  0.025330
    O1  O2-  1.0000  0.647950  0.629440  0.963490  Uiso  0.025330
    O1  O2-  1.0000  0.770900  0.725810  0.938940  Uiso  0.025330
    O1  O2-  1.0000  0.893850  0.822180  0.914400  Uiso  0.025330
    O1  O2-  1.0000  0.520080  0.286110  0.975760  Uiso  0.025330
    O1  O2-  1.0000  0.643030  0.382480  0.951220  Uiso  0.025330
    O1  O2-  1.0000  0.765980  0.478850  0.926670  Uiso  0.025330
    O1  O2-  1.0000  0.888930  0.575230  0.902120  Uiso  0.025330
    O1  O2-  1.0000  0.515160  0.039150  0.963490  Uiso  0.025330
    O1  O2-  1.0000  0.638110  0.135520  0.938940  Uiso  0.025330
    O1  O2-  1.0000  0.761060  0.231900  0.914400  Uiso  0.025330
    O1  O2-  1.0000  0.884010  0.328270  0.889850  Uiso  0.025330
    O1  O2-  1.0000  0.879090  0.081310  0.877570  Uiso  0.025330
    O1  O2-  1.0000  0.288930  0.834230  0.988040  Uiso  0.025330
    O1  O2-  1.0000  0.411880  0.930600  0.963490  Uiso  0.025330
    O1  O2-  1.0000  0.284020  0.587270  0.975760  Uiso  0.025330
    O1  O2-  1.0000  0.406970  0.683650  0.951220  Uiso  0.025330
    O1  O2-  1.0000  0.529920  0.780020  0.926670  Uiso  0.025330
    O1  O2-  1.0000  0.652870  0.876390  0.902120  Uiso  0.025330
    O1  O2-  1.0000  0.775820  0.972760  0.877570  Uiso  0.025330
    O1  O2-  1.0000  0.156150  0.243940  0.988040  Uiso  0.025330
    O1  O2-  1.0000  0.279100  0.340320  0.963490  Uiso  0.025330
    O1  O2-  1.0000  0.402050  0.436690  0.938940  Uiso  0.025330
    O1  O2-  1.0000  0.525000  0.533060  0.914400  Uiso  0.025330
    O1  O2-  1.0000  0.647950  0.629440  0.889850  Uiso  0.025330
    O1  O2-  1.0000  0.770900  0.725810  0.865300  Uiso  0.025330
    O1  O2-  1.0000  0.893850  0.822180  0.840750  Uiso  0.025330
    O1  O2-  1.0000  0.274180  0.093360  0.951220  Uiso  0.025330
    O1  O2-  1.0000  0.397130  0.189730  0.926670  Uiso  0.025330
    O1  O2-  1.0000  0.520080  0.286110  0.902120  Uiso  0.025330
    O1  O2-  1.0000  0.643030  0.382480  0.877570  Uiso  0.025330
    O1  O2-  1.0000  0.765980  0.478850  0.853030  Uiso  0.025330
    O1  O2-  1.0000  0.888930  0.575230  0.828480  Uiso  0.025330
    O1  O2-  1.0000  0.515160  0.039150  0.889850  Uiso  0.025330
    O1  O2-  1.0000  0.638110  0.135520  0.865300  Uiso  0.025330
    O1  O2-  1.0000  0.761060  0.231900  0.840750  Uiso  0.025330
    O1  O2-  1.0000  0.884010  0.328270  0.816200  Uiso  0.025330
    O1  O2-  1.0000  0.879090  0.081310  0.803930  Uiso  0.025330
    O1  O2-  1.0000  0.047950  0.888440  0.975760  Uiso  0.025330
    O1  O2-  1.0000  0.170900  0.984810  0.951220  Uiso  0.025330
    O1  O2-  1.0000  0.043030  0.641480  0.963490  Uiso  0.025330
    O1  O2-  1.0000  0.165980  0.737860  0.938940  Uiso  0.025330
    O1  O2-  1.0000  0.288930  0.834230  0.914400  Uiso  0.025330
    O1  O2-  1.0000  0.411880  0.930600  0.889850  Uiso  0.025330
    O1  O2-  1.0000  0.038110  0.394530  0.951220  Uiso  0.025330
    O1  O2-  1.0000  0.161060  0.490900  0.926670  Uiso  0.025330
    O1  O2-  1.0000  0.284020  0.587270  0.902120  Uiso  0.025330
    O1  O2-  1.0000  0.406970  0.683650  0.877570  Uiso  0.025330
    O1  O2-  1.0000  0.529920  0.780020  0.853030  Uiso  0.025330
    O1  O2-  1.0000  0.652870  0.876390  0.828480  Uiso  0.025330
    O1  O2-  1.0000  0.775820  0.972760  0.803930  Uiso  0.025330
    O1  O2-  1.0000  0.033200  0.147570  0.938940  Uiso  0.025330
    O1  O2-  1.0000  0.156150  0.243940  0.914400  Uiso  0.025330
    O1  O2-  1.0000  0.279100  0.340320  0.889850  Uiso  0.025330
    O1  O2-  1.0000  0.402050  0.436690  0.865300  Uiso  0.025330
    O1  O2-  1.0000  0.525000  0.533060  0.840750  Uiso  0.025330
    O1  O2-  1.0000  0.647950  0.629440  0.816200  Uiso  0.025330
    O1  O2-  1.0000  0.770900  0.725810  0.791660  Uiso  0.025330
    O1  O2-  1.0000  0.893850  0.822180  0.767110  Uiso  0.025330
    O1  O2-  1.0000  0.274180  0.093360  0.877570  Uiso  0.025330
    O1  O2-  1.0000  0.397130  0.189730  0.853030  Uiso  0.025330
    O1  O2-  1.0000  0.520080  0.286110  0.828480  Uiso  0.025330
    O1  O2-  1.0000  0.643030  0.382480  0.803930  Uiso  0.025330
    O1  O2-  1.0000  0.765980  0.478850  0.779380  Uiso  0.025330
    O1  O2-  1.0000  0.888930  0.575230  0.754840  Uiso  0.025330
    O1  O2-  1.0000  0.515160  0.039150  0.816200  Uiso  0.025330
    O1  O2-  1.0000  0.638110  0.135520  0.791660  Uiso  0.025330
    O1  O2-  1.0000  0.761060  0.231900  0.767110  Uiso  0.025330
    O1  O2-  1.0000  0.884010  0.328270  0.742560  Uiso  0.025330
    O1  O2-  1.0000  0.879090  0.081310  0.730290  Uiso  0.025330
    O1  O2-  1.0000  0.047950  0.888440  0.902120  Uiso  0.025330
    O1  O2-  1.0000  0.170900  0.984810  0.877570  Uiso  0.025330
    O1  O2-  1.0000  0.043030  0.641480  0.889850  Uiso  0.025330
    O1  O2-  1.0000  0.165980  0.737860  0.865300  Uiso  0.025330
    O1  O2-  1.0000  0.288930  0.834230  0.840750  Uiso  0.025330
    O1  O2-  1.0000  0.411880  0.930600  0.816200  Uiso  0.025330
    O1  O2-  1.0000  0.038110  0.394530  0.877570  Uiso  0.025330
    O1  O2-  1.0000  0.161060  0.490900  0.853030  Uiso  0.025330
    O1  O2-  1.0000  0.284020  0.587270  0.828480  Uiso  0.025330
    O1  O2-  1.0000  0.406970  0.683650  0.803930  Uiso  0.025330
    O1  O2-  1.0000  0.529920  0.780020  0.779380  Uiso  0.025330
    O1  O2-  1.0000  0.652870  0.876390  0.754840  Uiso  0.025330
    O1  O2-  1.0000  0.775820  0.972760  0.730290  Uiso  0.025330
    O1  O2-  1.0000  0.033200  0.147570  0.865300  Uiso  0.025330
    O1  O2-  1.0000  0.156150  0.243940  0.840750  Uiso  0.025330
    O1  O2-  1.0000  0.279100  0.340320  0.816200  Uiso  0.025330
    O1  O2-  1.0000  0.402050  0.436690  0.791660  Uiso  0.025330
    O1  O2-  1.0000  0.525000  0.533060  0.767110  Uiso  0.025330
    O1  O2-  1.0000  0.647950  0.629440  0.742560  Uiso  0.025330
    O1  O2-  1.0000  0.770900  0.725810  0.718010  Uiso  0.025330
    O1  O2-  1.0000  0.893850  0.822180  0.693470  Uiso  0.025330
    O1  O2-  1.0000  0.274180  0.093360  0.803930  Uiso  0.025330
    O1  O2-  1.0000  0.397130  0.189730  0.779380  Uiso  0.025330
    O1  O2-  1.0000  0.520080  0.286110  0.754840  Uiso  0.025330
    O1  O2-  1.0000  0.643030  0.382480  0.730290  Uiso  0.025330
    O1  O2-  1.0000  0.765980  0.478850  0.705740  Uiso  0.025330
    O1  O2-  1.0000  0.888930  0.575230  0.681190  Uiso  0.025330
    O1  O2-  1.0000  0.515160  0.039150  0.742560  Uiso  0.025330
    O1  O2-  1.0000  0.638110  0.135520  0.718010  Uiso  0.025330
    O1  O2-  1.0000  0.761060  0.231900  0.693470  Uiso  0.025330
    O1  O2-  1.0000  0.884010  0.328270  0.668920  Uiso  0.025330
    O1  O2-  1.0000  0.879090  0.081310  0.656650  Uiso  0.025330
    O1  O2-  1.0000  0.047950  0.888440  0.828480  Uiso  0.025330
    O1  O2-  1.0000  0.170900  0.984810  0.803930  Uiso  0.025330
    O1  O2-  1.0000  0.043030  0.641480  0.816200  Uiso  0.025330
    O1  O2-  1.0000  0.165980  0.737860  0.791660  Uiso  0.025330
    O1  O2-  1.0000  0.288930  0.834230  0.767110  Uiso  0.025330
    O1  O2-  1.0000  0.411880  0.930600  0.742560  Uiso  0.025330
    O1  O2-  1.0000  0.038110  0.394530  0.803930  Uiso  0.025330
    O1  O2-  1.0000  0.161060  0.490900  0.779380  Uiso  0.025330
    O1  O2-  1.0000  0.284020  0.587270  0.754840  Uiso  0.025330
    O1  O2-  1.0000  0.406970  0.683650  0.730290  Uiso  0.025330
    O1  O2-  1.0000  0.529920  0.780020  0.705740  Uiso  0.025330
    O1  O2-  1.0000  0.652870  0.876390  0.681190  Uiso  0.025330
    O1  O2-  1.0000  0.775820  0.972760  0.656650  Uiso  0.025330
    O1  O2-  1.0000  0.033200  0.147570  0.791660  Uiso  0.025330
    O1  O2-  1.0000  0.156150  0.243940  0.767110  Uiso  0.025330
    O1  O2-  1.0000  0.279100  0.340320  0.742560  Uiso  0.025330
    O1  O2-  1.0000  0.402050  0.436690  0.718010  Uiso  0.025330
    O1  O2-  1.0000  0.525000  0.533060  0.693470  Uiso  0.025330
    O1  O2-  1.0000  0.647950  0.629440  0.668920  Uiso  0.025330
    O1  O2-  1.0000  0.770900  0.725810  0.644370  Uiso  0.025330
    O1  O2-  1.0000  0.893850  0.822180  0.619820  Uiso  0.025330
    O1  O2-  1.0000  0.274180  0.093360  0.730290  Uiso  0.025330
    O1  O2-  1.0000  0.397130  0.189730  0.705740  Uiso  0.025330
    O1  O2-  1.0000  0.520080  0.286110  0.681190  Uiso  0.025330
    O1  O2-  1.0000  0.643030  0.382480  0.656650  Uiso  0.025330
    O1  O2-  1.0000  0.765980  0.478850  0.632100  Uiso  0.025330
    O1  O2-  1.0000  0.888930  0.575230  0.607550  Uiso  0.025330
    O1  O2-  1.0000  0.515160  0.039150  0.668920  Uiso  0.025330
    O1  O2-  1.0000  0.638110  0.135520  0.644370  Uiso  0.025330
    O1  O2-  1.0000  0.761060  0.231900  0.619820  Uiso  0.025330
    O1  O2-  1.0000  0.884010  0.328270  0.595280  Uiso  0.025330
    O1  O2-  1.0000  0.879090  0.081310  0.583000  Uiso  0.025330
    O1  O2-  1.0000  0.047950  0.888440  0.754840  Uiso  0.025330
    O1  O2-  1.0000  0.170900  0.984810  0.730290  Uiso  0.025330
    O1  O2-  1.0000  0.043030  0.641480  0.742560  Uiso  0.025330
    O1  O2-  1.0000  0.165980  0.737860  0.718010  Uiso  0.025330
    O1  O2-  1.0000  0.288930  0.834230  0.693470  Uiso  0.025330
    O1  O2-  1.0000  0.411880  0.930600  0.668920  Uiso  0.025330
    O1  O2-  1.0000  0.038110  0.394530  0.730290  Uiso  0.025330
    O1  O2-  1.0000  0.161060  0.490900  0.705740  Uiso  0.025330
    O1  O2-  1.0000  0.284020  0.587270  0.681190  Uiso  0.025330
    O1  O2-  1.0000  0.406970  0.683650  0.656650  Uiso  0.025330
    O1  O2-  1.0000  0.529920  0.780020  0.632100  Uiso  0.025330
    O1  O2-  1.0000  0.652870  0.876390  0.607550  Uiso  0.025330
    O1  O2-  1.0000  0.775820  0.972760  0.583000  Uiso  0.025330
    O1  O2-  1.0000  0.033200  0.147570  0.718010  Uiso  0.025330
    O1  O2-  1.0000  0.156150  0.243940  0.693470  Uiso  0.025330
    O1  O2-  1.0000  0.279100  0.340320  0.668920  Uiso  0.025330
    O1  O2-  1.0000  0.402050  0.436690  0.644370  Uiso  0.025330
    O1  O2-  1.0000  0.525000  0.533060  0.619820  Uiso  0.025330
    O1  O2-  1.0000  0.647950  0.629440  0.595280  Uiso  0.025330
    O1  O2-  1.0000  0.770900  0.725810  0.570730  Uiso  0.025330
    O1  O2-  1.0000  0.893850  0.822180  0.546180  Uiso  0.025330
    O1  O2-  1.0000  0.274180  0.093360  0.656650  Uiso  0.025330
    O1  O2-  1.0000  0.397130  0.189730  0.632100  Uiso  0.025330
    O1  O2-  1.0000  0.520080  0.286110  0.607550  Uiso  0.025330
    O1  O2-  1.0000  0.643030  0.382480  0.583000  Uiso  0.025330
    O1  O2-  1.0000  0.765980  0.478850  0.558460  Uiso  0.025330
    O1  O2-  1.0000  0.888930  0.575230  0.533910  Uiso  0.025330
    O1  O2-  1.0000  0.515160  0.039150  0.595280  Uiso  0.025330
    O1  O2-  1.0000  0.638110  0.135520  0.570730  Uiso  0.025330
    O1  O2-  1.0000  0.761060  0.231900  0.546180  Uiso  0.025330
    O1  O2-  1.0000  0.884010  0.328270  0.521630  Uiso  0.025330
    O1  O2-  1.0000  0.879090  0.081310  0.509360  Uiso  0.025330
    O1  O2-  1.0000  0.047950  0.888440  0.681190  Uiso  0.025330
    O1  O2-  1.0000  0.170900  0.984810  0.656650  Uiso  0.025330
    O1  O2-  1.0000  0.043030  0.641480  0.668920  Uiso  0.025330
    O1  O2-  1.0000  0.165980  0.737860  0.644370  Uiso  0.025330
    O1  O2-  1.0000  0.288930  0.834230  0.619820  Uiso  0.025330
    O1  O2-  1.0000  0.411880  0.930600  0.595280  Uiso  0.025330
    O1  O2-  1.0000  0.038110  0.394530  0.656650  Uiso  0.025330
    O1  O2-  1.0000  0.161060  0.490900  0.632100  Uiso  0.025330
    O1  O2-  1.0000  0.284020  0.587270  0.607550  Uiso  0.025330
    O1  O2-  1.0000  0.406970  0.683650  0.583000  Uiso  0.025330
    O1  O2-  1.0000  0.529920  0.780020  0.558460  Uiso  0.025330
    O1  O2-  1.0000  0.652870  0.876390  0.533910  Uiso  0.025330
    O1  O2-  1.0000  0.775820  0.972760  0.509360  Uiso  0.025330
    O1  O2-  1.0000  0.033200  0.147570  0.644370  Uiso  0.025330
    O1  O2-  1.0000  0.156150  0.243940  0.619820  Uiso  0.025330
    O1  O2-  1.0000  0.279100  0.340320  0.595280  Uiso  0.025330
    O1  O2-  1.0000  0.402050  0.436690  0.570730  Uiso  0.025330
    O1  O2-  1.0000  0.525000  0.533060  0.546180  Uiso  0.025330
    O1  O2-  1.0000  0.647950  0.629440  0.521630  Uiso  0.025330
    O1  O2-  1.0000  0.770900  0.725810  0.497090  Uiso  0.025330
    O1  O2-  1.0000  0.893850  0.822180  0.472540  Uiso  0.025330
    O1  O2-  1.0000  0.274180  0.093360  0.583000  Uiso  0.025330
    O1  O2-  1.0000  0.397130  0.189730  0.558460  Uiso  0.025330
    O1  O2-  1.0000  0.520080  0.286110  0.533910  Uiso  0.025330
    O1  O2-  1.0000  0.643030  0.382480  0.509360  Uiso  0.025330
    O1  O2-  1.0000  0.765980  0.478850  0.484810  Uiso  0.025330
    O1  O2-  1.0000  0.888930  0.575230  0.460270  Uiso  0.025330
    O1  O2-  1.0000  0.515160  0.039150  0.521630  Uiso  0.025330
    O1  O2-  1.0000  0.638110  0.135520  0.497090  Uiso  0.025330
    O1  O2-  1.0000  0.761060  0.231900  0.472540  Uiso  0.025330
    O1  O2-  1.0000  0.884010  0.328270  0.447990  Uiso  0.025330
    O1  O2-  1.0000  0.879090  0.081310  0.435720  Uiso  0.025330
    O1  O2-  1.0000  0.047950  0.888440  0.607550  Uiso  0.025330
    O1  O2-  1.0000  0.170900  0.984810  0.583000  Uiso  0.025330
    O1  O2-  1.0000  0.043030  0.641480  0.595280  Uiso  0.025330
    O1  O2-  1.0000  0.165980  0.737860  0.570730  Uiso  0.025330
    O1  O2-  1.0000  0.288930  0.834230  0.546180  Uiso  0.025330
    O1  O2-  1.0000  0.411880  0.930600  0.521630  Uiso  0.025330
    O1  O2-  1.0000  0.038110  0.394530  0.583000  Uiso  0.025330
    O1  O2-  1.0000  0.161060  0.490900  0.558460  Uiso  0.025330
    O1  O2-  1.0000  0.284020  0.587270  0.533910  Uiso  0.025330
    O1  O2-  1.0000  0.406970  0.683650  0.509360  Uiso  0.025330
    O1  O2-  1.0000  0.529920  0.780020  0.484810  Uiso  0.025330
    O1  O2-  1.0000  0.652870  0.876390  0.460270  Uiso  0.025330
    O1  O2-  1.0000  0.775820  0.972760  0.435720  Uiso  0.025330
    O1  O2-  1.0000  0.033200  0.147570  0.570730  Uiso  0.025330
    O1  O2-  1.0000  0.156150  0.243940  0.546180  Uiso  0.025330
    O1  O2-  1.0000  0.279100  0.340320  0.521630  Uiso  0.025330
    O1  O2-  1.0000  0.402050  0.436690  0.497090  Uiso  0.025330
    O1  O2-  1.0000  0.525000  0.533060  0.472540  Uiso  0.025330
    O1  O2-  1.0000  0.647950  0.629440  0.447990  Uiso  0.025330
    O1  O2-  1.0000  0.770900  0.725810  0.423440  Uiso  0.025330
    O1  O2-  1.0000  0.893850  0.822180  0.398900  Uiso  0.025330
    O1  O2-  1.0000  0.274180  0.093360  0.509360  Uiso  0.025330
    O1  O2-  1.0000  0.397130  0.189730  0.484810  Uiso  0.025330
    O1  O2-  1.0000  0.520080  0.286110  0.460270  Uiso  0.025330
    O1  O2-  1.0000  0.643030  0.382480  0.435720  Uiso  0.025330
    O1  O2-  1.0000  0.765980  0.478850  0.411170  Uiso  0.025330
    O1  O2-  1.0000  0.888930  0.575230  0.386620  Uiso  0.025330
    O1  O2-  1.0000  0.515160  0.039150  0.447990  Uiso  0.025330
    O1  O2-  1.0000  0.638110  0.135520  0.423440  Uiso  0.025330
    O1  O2-  1.0000  0.761060  0.231900  0.398900  Uiso  0.025330
    O1  O2-  1.0000  0.884010  0.328270  0.374350  Uiso  0.025330
    O1  O2-  1.0000  0.879090  0.081310  0.362080  Uiso  0.025330
    O1  O2-  1.0000  0.047950  0.888440  0.533910  Uiso  0.025330
    O1  O2-  1.0000  0.170900  0.984810  0.509360  Uiso  0.025330
    O1  O2-  1.0000  0.043030  0.641480  0.521630  Uiso  0.025330
    O1  O2-  1.0000  0.165980  0.737860  0.497090  Uiso  0.025330
    O1  O2-  1.0000  0.288930  0.834230  0.472540  Uiso  0.025330
    O1  O2-  1.0000  0.411880  0.930600  0.447990  Uiso  0.025330
    O1  O2-  1.0000  0.038110  0.394530  0.509360  Uiso  0.025330
    O1  O2-  1.0000  0.161060  0.490900  0.484810  Uiso  0.025330
    O1  O2-  1.0000  0.284020  0.587270  0.460270  Uiso  0.025330
    O1  O2-  1.0000  0.406970  0.683650  0.435720  Uiso  0.025330
    O1  O2-  1.0000  0.529920  0.780020  0.411170  Uiso  0.025330
    O1  O2-  1.0000  0.652870  0.876390  0.386620  Uiso  0.025330
    O1  O2-  1.0000  0.775820  0.972760  0.362080  Uiso  0.025330
    O1  O2-  1.0000  0.033200  0.147570  0.497090  Uiso  0.025330
    O1  O2-  1.0000  0.156150  0.243940  0.472540  Uiso  0.025330
    O1  O2-  1.0000  0.279100  0.340320  0.447990  Uiso  0.025330
    O1  O2-  1.0000  0.402050  0.436690  0.423440  Uiso  0.025330
    O1  O2-  1.0000  0.525000  0.533060  0.398900  Uiso  0.025330
    O1  O2-  1.0000  0.647950  0.629440  0.374350  Uiso  0.025330
    O1  O2-  1.0000  0.770900  0.725810  0.349800  Uiso  0.025330
    O1  O2-  1.0000  0.893850  0.822180  0.325250  Uiso  0.025330
    O1  O2-  1.0000  0.274180  0.093360  0.435720  Uiso  0.025330
    O1  O2-  1.0000  0.397130  0.189730  0.411170  Uiso  0.025330
    O1  O2-  1.0000  0.520080  0.286110  0.386620  Uiso  0.025330
    O1  O2-  1.0000  0.643030  0.382480  0.362080  Uiso  0.025330
    O1  O2-  1.0000  0.765980  0.478850  0.337530  Uiso  0.025330
    O1  O2-  1.0000  0.888930  0.575230  0.312980  Uiso  0.025330
    O1  O2-  1.0000  0.515160  0.039150  0.374350  Uiso  0.025330
    O1  O2-  1.0000  0.638110  0.135520  0.349800  Uiso  0.025330
    O1  O2-  1.0000  0.761060  0.231900  0.325250  Uiso  0.025330
    O1  O2-  1.0000  0.884010  0.328270  0.300710  Uiso  0.025330
    O1  O2-  1.0000  0.879090  0.081310  0.288430  Uiso  0.025330
    O1  O2-  1.0000  0.047950  0.888440  0.460270  Uiso  0.025330
    O1  O2-  1.0000  0.170900  0.984810  0.435720  Uiso  0.025330
    O1  O2-  1.0000  0.043030  0.641480  0.447990  Uiso  0.025330
    O1  O2-  1.0000  0.165980  0.737860  0.423440  Uiso  0.025330
    O1  O2-  1.0000  0.288930  0.834230  0.398900  Uiso  0.025330
    O1  O2-  1.0000  0.411880  0.930600  0.374350  Uiso  0.025330
    O1  O2-  1.0000  0.038110  0.394530  0.435720  Uiso  0.025330
    O1  O2-  1.0000  0.161060  0.490900  0.411170  Uiso  0.025330
    O1  O2-  1.0000  0.284020  0.587270  0.386620  Uiso  0.025330
    O1  O2-  1.0000  0.406970  0.683650  0.362080  Uiso  0.025330
    O1  O2-  1.0000  0.529920  0.780020  0.337530  Uiso  0.025330
    O1  O2-  1.0000  0.652870  0.876390  0.312980  Uiso  0.025330
    O1  O2-  1.0000  0.775820  0.972760  0.288430  Uiso  0.025330
    O1  O2-  1.0000  0.033200  0.147570  0.423440  Uiso  0.025330
    O1  O2-  1.0000  0.156150  0.243940  0.398900  Uiso  0.025330
    O1  O2-  1.0000  0.279100  0.340320  0.374350  Uiso  0.025330
    O1  O2-  1.0000  0.402050  0.436690  0.349800  Uiso  0.025330
    O1  O2-  1.0000  0.525000  0.533060  0.325250  Uiso  0.025330
    O1  O2-  1.0000  0.647950  0.629440  0.300710  Uiso  0.025330
    O1  O2-  1.0000  0.770900  0.725810  0.276160  Uiso  0.025330
    O1  O2-  1.0000  0.893850  0.822180  0.251610  Uiso  0.025330
    O1  O2-  1.0000  0.274180  0.093360  0.362080  Uiso  0.025330
    O1  O2-  1.0000  0.397130  0.189730  0.337530  Uiso  0.025330
    O1  O2-  1.0000  0.520080  0.286110  0.312980  Uiso  0.025330
    O1  O2-  1.0000  0.643030  0.382480  0.288430  Uiso  0.025330
    O1  O2-  1.0000  0.765980  0.478850  0.263890  Uiso  0.025330
    O1  O2-  1.0000  0.888930  0.575230  0.239340  Uiso  0.025330
    O1  O2-  1.0000  0.515160  0.039150  0.300710  Uiso  0.025330
    O1  O2-  1.0000  0.638110  0.135520  0.276160  Uiso  0.025330
    O1  O2-  1.0000  0.761060  0.231900  0.251610  Uiso  0.025330
    O1  O2-  1.0000  0.884010  0.328270  0.227060  Uiso  0.025330
    O1  O2-  1.0000  0.879090  0.081310  0.214790  Uiso  0.025330
    O1  O2-  1.0000  0.047950  0.888440  0.386620  Uiso  0.025330
    O1  O2-  1.0000  0.170900  0.984810  0.362080  Uiso  0.025330
    O1  O2-  1.0000  0.043030  0.641480  0.374350  Uiso  0.025330
    O1  O2-  1.0000  0.165980  0.737860  0.349800  Uiso  0.025330
    O1  O2-  1.0000  0.288930  0.834230  0.325250  Uiso  0.025330
    O1  O2-  1.0000  0.411880  0.930600  0.300710  Uiso  0.025330
    O1  O2-  1.0000  0.038110  0.394530  0.362080  Uiso  0.025330
    O1  O2-  1.0000  0.161060  0.490900  0.337530  Uiso  0.025330
    O1  O2-  1.0000  0.284020  0.587270  0.312980  Uiso  0.025330
    O1  O2-  1.0000  0.406970  0.683650  0.288430  Uiso  0.025330
    O1  O2-  1.0000  0.529920  0.780020  0.263890  Uiso  0.025330
    O1  O2-  1.0000  0.652870  0.876390  0.239340  Uiso  0.025330
    O1  O2-  1.0000  0.775820  0.972760  0.214790  Uiso  0.025330
    O1  O2-  1.0000  0.033200  0.147570  0.349800  Uiso  0.025330
    O1  O2-  1.0000  0.156150  0.243940  0.325250  Uiso  0.025330
    O1  O2-  1.0000  0.279100  0.340320  0.300710  Uiso  0.025330
    O1  O2-  1.0000  0.402050  0.436690  0.276160  Uiso  0.025330
    O1  O2-  1.0000  0.525000  0.533060  0.251610  Uiso  0.025330
    O1  O2-  1.0000  0.647950  0.629440  0.227060  Uiso  0.025330
    O1  O2-  1.0000  0.770900  0.725810  0.202520  Uiso  0.025330
    O1  O2-  1.0000  0.893850  0.822180  0.177970  Uiso  0.025330
    O1  O2-  1.0000  0.274180  0.093360  0.288430  Uiso  0.025330
    O1  O2-  1.0000  0.397130  0.189730  0.263890  Uiso  0.025330
    O1  O2-  1.0000  0.520080  0.286110  0.239340  Uiso  0.025330
    O1  O2-  1.0000  0.643030  0.382480  0.214790  Uiso  0.025330
    O1  O2-  1.0000  0.765980  0.478850  0.190240  Uiso  0.025330
    O1  O2-  1.0000  0.888930  0.575230  0.165700  Uiso  0.025330
    O1  O2-  1.0000  0.515160  0.039150  0.227060  Uiso  0.025330
    O1  O2-  1.0000  0.638110  0.135520  0.202520  Uiso  0.025330
    O1  O2-  1.0000  0.761060  0.231900  0.177970  Uiso  0.025330
    O1  O2-  1.0000  0.884010  0.328270  0.153420  Uiso  0.025330
    O1  O2-  1.0000  0.879090  0.081310  0.141150  Uiso  0.025330
    O1  O2-  1.0000  0.047950  0.888440  0.312980  Uiso  0.025330
    O1  O2-  1.0000  0.170900  0.984810  0.288430  Uiso  0.025330
    O1  O2-  1.0000  0.043030  0.641480  0.300710  Uiso  0.025330
    O1  O2-  1.0000  0.165980  0.737860  0.276160  Uiso  0.025330
    O1  O2-  1.0000  0.288930  0.834230  0.251610  Uiso  0.025330
    O1  O2-  1.0000  0.411880  0.930600  0.227060  Uiso  0.025330
    O1  O2-  1.0000  0.038110  0.394530  0.288430  Uiso  0.025330
    O1  O2-  1.0000  0.161060  0.490900  0.263890  Uiso  0.025330
    O1  O2-  1.0000  0.284020  0.587270  0.239340  Uiso  0.025330
    O1  O2-  1.0000  0.406970  0.683650  0.214790  Uiso  0.025330
    O1  O2-  1.0000  0.529920  0.780020  0.190240  Uiso  0.025330
    O1  O2-  1.0000  0.652870  0.876390  0.165700  Uiso  0.025330
    O1  O2-  1.0000  0.775820  0.972760  0.141150  Uiso  0.025330
    O1  O2-  1.0000  0.033200  0.147570  0.276160  Uiso  0.025330
    O1  O2-  1.0000  0.156150  0.243940  0.251610  Uiso  0.025330
    O1  O2-  1.0000  0.279100  0.340320  0.227060  Uiso  0.025330
    O1  O2-  1.0000  0.402050  0.436690  0.202520  Uiso  0.025330
    O1  O2-  1.0000  0.525000  0.533060  0.177970  Uiso  0.025330
    O1  O2-  1.0000  0.647950  0.629440  0.153420  Uiso  0.025330
    O1  O2-  1.0000  0.770900  0.725810  0.128870  Uiso  0.025330
    O1  O2-  1.0000  0.893850  0.822180  0.104330  Uiso  0.025330
    O1  O2-  1.0000  0.274180  0.093360  0.214790  Uiso  0.025330
    O1  O2-  1.0000  0.397130  0.189730  0.190240  Uiso  0.025330
    O1  O2-  1.0000  0.520080  0.286110  0.165700  Uiso  0.025330
    O1  O2-  1.0000  0.643030  0.382480  0.141150  Uiso  0.025330
    O1  O2-  1.0000  0.765980  0.478850  0.116600  Uiso  0.025330
    O1  O2-  1.0000  0.888930  0.575230  0.092050  Uiso  0.025330
    O1  O2-  1.0000  0.515160  0.039150  0.153420  Uiso  0.025330
    O1  O2-  1.0000  0.638110  0.135520  0.128870  Uiso  0.025330
    O1  O2-  1.0000  0.761060  0.231900  0.104330  Uiso  0.025330
    O1  O2-  1.0000  0.884010  0.328270  0.079780  Uiso  0.025330
    O1  O2-  1.0000  0.879090  0.081310  0.067510  Uiso  0.025330
    O1  O2-  1.0000  0.047950  0.888440  0.239340  Uiso  0.025330
    O1  O2-  1.0000  0.170900  0.984810  0.214790  Uiso  0.025330
    O1  O2-  1.0000  0.043030  0.641480  0.227060  Uiso  0.025330
    O1  O2-  1.0000  0.165980  0.737860  0.202520  Uiso  0.025330
    O1  O2-  1.0000  0.288930  0.834230  0.177970  Uiso  0.025330
    O1  O2-  1.0000  0.411880  0.930600  0.153420  Uiso  0.025330
    O1  O2-  1.0000  0.038110  0.394530  0.214790  Uiso  0.025330
    O1  O2-  1.0000  0.161060  0.490900  0.190240  Uiso  0.025330
    O1  O2-  1.0000  0.284020  0.587270  0.165700  Uiso  0.025330
    O1  O2-  1.0000  0.406970  0.683650  0.141150  Uiso  0.025330
    O1  O2-  1.0000  0.529920  0.780020  0.116600  Uiso  0.025330
    O1  O2-  1.0000  0.652870  0.876390  0.092050  Uiso  0.025330
    O1  O2-  1.0000  0.775820  0.972760  0.067510  Uiso  0.025330
    O1  O2-  1.0000  0.033200  0.147570  0.202520  Uiso  0.025330
    O1  O2-  1.0000  0.156150  0.243940  0.177970  Uiso  0.025330
    O1  O2-  1.0000  0.279100  0.340320  0.153420  Uiso  0.025330
    O1  O2-  1.0000  0.402050  0.436690  0.128870  Uiso  0.025330
    O1  O2-  1.0000  0.525000  0.533060  0.104330  Uiso  0.025330
    O1  O2-  1.0000  0.647950  0.629440  0.079780  Uiso  0.025330
    O1  O2-  1.0000  0.770900  0.725810  0.055230  Uiso  0.025330
    O1  O2-  1.0000  0.893850  0.822180  0.030680  Uiso  0.025330
    O1  O2-  1.0000  0.274180  0.093360  0.141150  Uiso  0.025330
    O1  O2-  1.0000  0.397130  0.189730  0.116600  Uiso  0.025330
    O1  O2-  1.0000  0.520080  0.286110  0.092050  Uiso  0.025330
    O1  O2-  1.0000  0.643030  0.382480  0.067510  Uiso  0.025330
    O1  O2-  1.0000  0.765980  0.478850  0.042960  Uiso  0.025330
    O1  O2-  1.0000  0.888930  0.575230  0.018410  Uiso  0.025330
    O1  O2-  1.0000  0.515160  0.039150  0.079780  Uiso  0.025330
    O1  O2-  1.0000  0.638110  0.135520  0.055230  Uiso  0.025330
    O1  O2-  1.0000  0.761060  0.231900  0.030680  Uiso  0.025330
    O1  O2-  1.0000  0.884010  0.328270  0.006140  Uiso  0.025330
    O1  O2-  1.0000  0.047950  0.888440  0.165700  Uiso  0.025330
    O1  O2-  1.0000  0.170900  0.984810  0.141150  Uiso  0.025330
    O1  O2-  1.0000  0.043030  0.641480  0.153420  Uiso  0.025330
    O1  O2-  1.0000  0.165980  0.737860  0.128870  Uiso  0.025330
    O1  O2-  1.0000  0.288930  0.834230  0.104330  Uiso  0.025330
    O1  O2-  1.0000  0.411880  0.930600  0.079780  Uiso  0.025330
    O1  O2-  1.0000  0.038110  0.394530  0.141150  Uiso  0.025330
    O1  O2-  1.0000  0.161060  0.490900  0.116600  Uiso  0.025330
    O1  O2-  1.0000  0.284020  0.587270  0.092050  Uiso  0.025330
    O1  O2-  1.0000  0.406970  0.683650  0.067510  Uiso  0.025330
    O1  O2-  1.0000  0.529920  0.780020  0.042960  Uiso  0.025330
    O1  O2-  1.0000  0.652870  0.876390  0.018410  Uiso  0.025330
    O1  O2-  1.0000  0.033200  0.147570  0.128870  Uiso  0.025330
    O1  O2-  1.0000  0.156150  0.243940  0.104330  Uiso  0.025330
    O1  O2-  1.0000  0.279100  0.340320  0.079780  Uiso  0.025330
    O1  O2-  1.0000  0.402050  0.436690  0.055230  Uiso  0.025330
    O1  O2-  1.0000  0.525000  0.533060  0.030680  Uiso  0.025330
    O1  O2-  1.0000  0.647950  0.629440  0.006140  Uiso  0.025330
    O1  O2-  1.0000  0.274180  0.093360  0.067510  Uiso  0.025330
    O1  O2-  1.0000  0.397130  0.189730  0.042960  Uiso  0.025330
    O1  O2-  1.0000  0.520080  0.286110  0.018410  Uiso  0.025330
    O1  O2-  1.0000  0.515160  0.039150  0.006140  Uiso  0.025330
    O1  O2-  1.0000  0.047950  0.888440  0.092050  Uiso  0.025330
    O1  O2-  1.0000  0.170900  0.984810  0.067510  Uiso  0.025330
    O1  O2-  1.0000  0.043030  0.641480  0.079780  Uiso  0.025330
    O1  O2-  1.0000  0.165980  0.737860  0.055230  Uiso  0.025330
    O1  O2-  1.0000  0.288930  0.834230  0.030680  Uiso  0.025330
    O1  O2-  1.0000  0.411880  0.930600  0.006140  Uiso  0.025330
    O1  O2-  1.0000  0.038110  0.394530  0.067510  Uiso  0.025330
    O1  O2-  1.0000  0.161060  0.490900  0.042960  Uiso  0.025330
    O1  O2-  1.0000  0.284020  0.587270  0.018410  Uiso  0.025330
    O1  O2-  1.0000  0.033200  0.147570  0.055230  Uiso  0.025330
    O1  O2-  1.0000  0.156150  0.243940  0.030680  Uiso  0.025330
    O1  O2-  1.0000  0.279100  0.340320  0.006140  Uiso  0.025330
    O1  O2-  1.0000  0.047950  0.888440  0.018410  Uiso  0.025330
    O1  O2-  1.0000  0.043030  0.641480  0.006140  Uiso  0.025330
    Ce1  Ce4+  1.0000  0.973770  0.277070  0.994170  Uiso  0.001267
    Ce1  Ce4+  1.0000  0.968850  0.030120  0.981900  Uiso  0.001267
    Ce1  Ce4+  1.0000  0.865570  0.921570  0.981900  Uiso  0.001267
    Ce1  Ce4+  1.0000  0.737700  0.578240  0.994170  Uiso  0.001267
    Ce1  Ce4+  1.0000  0.860650  0.674610  0.969630  Uiso  0.001267
    Ce1  Ce4+  1.0000  0.983600  0.770980  0.945080  Uiso  0.001267
    Ce1  Ce4+  1.0000  0.732780  0.331280  0.981900  Uiso  0.001267
    Ce1  Ce4+  1.0000  0.855730  0.427650  0.957350  Uiso  0.001267
    Ce1  Ce4+  1.0000  0.978680  0.524030  0.932810  Uiso  0.001267
    Ce1  Ce4+  1.0000  0.727870  0.084330  0.969630  Uiso  0.001267
    Ce1  Ce4+  1.0000  0.850820  0.180700  0.945080  Uiso  0.001267
    Ce1  Ce4+  1.0000  0.973770  0.277070  0.920530  Uiso  0.001267
    Ce1  Ce4+  1.0000  0.968850  0.030120  0.908260  Uiso  0.001267
    Ce1  Ce4+  1.0000  0.501640  0.879400  0.994170  Uiso  0.001267
    Ce1  Ce4+  1.0000  0.624590  0.975780  0.969630  Uiso  0.001267
    Ce1  Ce4+  1.0000  0.496720  0.632450  0.981900  Uiso  0.001267
    Ce1  Ce4+  1.0000  0.619670  0.728820  0.957350  Uiso  0.001267
    Ce1  Ce4+  1.0000  0.742620  0.825190  0.932810  Uiso  0.001267
    Ce1  Ce4+  1.0000  0.865570  0.921570  0.908260  Uiso  0.001267
    Ce1  Ce4+  1.0000  0.368850  0.289120  0.994170  Uiso  0.001267
    Ce1  Ce4+  1.0000  0.491800  0.385490  0.969630  Uiso  0.001267
    Ce1  Ce4+  1.0000  0.614750  0.481860  0.945080  Uiso  0.001267
    Ce1  Ce4+  1.0000  0.737700  0.578240  0.920530  Uiso  0.001267
    Ce1  Ce4+  1.0000  0.860650  0.674610  0.895980  Uiso  0.001267
    Ce1  Ce4+  1.0000  0.983600  0.770980  0.871440  Uiso  0.001267
    Ce1  Ce4+  1.0000  0.363930  0.042160  0.981900  Uiso  0.001267
    Ce1  Ce4+  1.0000  0.486880  0.138540  0.957350  Uiso  0.001267
    Ce1  Ce4+  1.0000  0.609830  0.234910  0.932810  Uiso  0.001267
    Ce1  Ce4+  1.0000  0.732780  0.331280  0.908260  Uiso  0.001267
    Ce1  Ce4+  1.0000  0.855730  0.427650  0.883710  Uiso  0.001267
    Ce1  Ce4+  1.0000  0.978680  0.524030  0.859160  Uiso  0.001267
    Ce1  Ce4+  1.0000  0.727870  0.084330  0.895980  Uiso  0.001267
    Ce1  Ce4+  1.0000  0.850820  0.180700  0.871440  Uiso  0.001267
    Ce1  Ce4+  1.0000  0.973770  0.277070  0.846890  Uiso  0.001267
    Ce1  Ce4+  1.0000  0.968850  0.030120  0.834620  Uiso  0.001267
    Ce1  Ce4+  1.0000  0.260650  0.933610  0.981900  Uiso  0.001267
    Ce1  Ce4+  1.0000  0.132790  0.590280  0.994170  Uiso  0.001267
    Ce1  Ce4+  1.0000  0.255740  0.686660  0.969630  Uiso  0.001267
    Ce1  Ce4+  1.0000  0.378690  0.783030  0.945080  Uiso  0.001267
    Ce1  Ce4+  1.0000  0.501640  0.879400  0.920530  Uiso  0.001267
    Ce1  Ce4+  1.0000  0.624590  0.975780  0.895980  Uiso  0.001267
    Ce1  Ce4+  1.0000  0.127870  0.343330  0.981900  Uiso  0.001267
    Ce1  Ce4+  1.0000  0.250820  0.439700  0.957350  Uiso  0.001267
    Ce1  Ce4+  1.0000  0.373770  0.536070  0.932810  Uiso  0.001267
    Ce1  Ce4+  1.0000  0.496720  0.632450  0.908260  Uiso  0.001267
    Ce1  Ce4+  1.0000  0.619670  0.728820  0.883710  Uiso  0.001267
    Ce1  Ce4+  1.0000  0.742620  0.825190  0.859160  Uiso  0.001267
    Ce1  Ce4+  1.0000  0.865570  0.921570  0.834620  Uiso  0.001267
    Ce1  Ce4+  1.0000  0.000000  0.000000  0.994170  Uiso  0.001267
    Ce1  Ce4+  1.0000  0.122950  0.096370  0.969630  Uiso  0.001267
    Ce1  Ce4+  1.0000  0.245900  0.192750  0.945080  Uiso  0.001267
    Ce1  Ce4+  1.0000  0.368850  0.289120  0.920530  Uiso  0.001267
    Ce1  Ce4+  1.0000  0.491800  0.385490  0.895980  Uiso  0.001267
    Ce1  Ce4+  1.0000  0.614750  0.481860  0.871440  Uiso  0.001267
    Ce1  Ce4+  1.0000  0.737700  0.578240  0.846890  Uiso  0.001267
    Ce1  Ce4+  1.0000  0.860650  0.674610  0.822340  Uiso  0.001267
    Ce1  Ce4+  1.0000  0.983600  0.770980  0.797790  Uiso  0.001267
    Ce1  Ce4+  1.0000  0.363930  0.042160  0.908260  Uiso  0.001267
    Ce1  Ce4+  1.0000  0.486880  0.138540  0.883710  Uiso  0.001267
    Ce1  Ce4+  1.0000  0.609830  0.234910  0.859160  Uiso  0.001267
    Ce1  Ce4+  1.0000  0.732780  0.331280  0.834620  Uiso  0.001267
    Ce1  Ce4+  1.0000  0.855730  0.427650  0.810070  Uiso  0.001267
    Ce1  Ce4+  1.0000  0.978680  0.524030  0.785520  Uiso  0.001267
    Ce1  Ce4+  1.0000  0.727870  0.084330  0.822340  Uiso  0.001267
    Ce1  Ce4+  1.0000  0.850820  0.180700  0.797790  Uiso  0.001267
    Ce1  Ce4+  1.0000  0.973770  0.277070  0.773250  Uiso  0.001267
    Ce1  Ce4+  1.0000  0.968850  0.030120  0.760970  Uiso  0.001267
    Ce1  Ce4+  1.0000  0.019670  0.987820  0.969630  Uiso  0.001267
    Ce1  Ce4+  1.0000  0.014750  0.740870  0.957350  Uiso  0.001267
    Ce1  Ce4+  1.0000  0.137700  0.837240  0.932810  Uiso  0.001267
    Ce1  Ce4+  1.0000  0.260650  0.933610  0.908260  Uiso  0.001267
    Ce1  Ce4+  1.0000  0.009840  0.493910  0.945080  Uiso  0.001267
    Ce1  Ce4+  1.0000  0.132790  0.590280  0.920530  Uiso  0.001267
    Ce1  Ce4+  1.0000  0.255740  0.686660  0.895980  Uiso  0.001267
    Ce1  Ce4+  1.0000  0.378690  0.783030  0.871440  Uiso  0.001267
    Ce1  Ce4+  1.0000  0.501640  0.879400  0.846890  Uiso  0.001267
    Ce1  Ce4+  1.0000  0.624590  0.975780  0.822340  Uiso  0.001267
    Ce1  Ce4+  1.0000  0.004920  0.246960  0.932810  Uiso  0.001267
    Ce1  Ce4+  1.0000  0.127870  0.343330  0.908260  Uiso  0.001267
    Ce1  Ce4+  1.0000  0.250820  0.439700  0.883710  Uiso  0.001267
    Ce1  Ce4+  1.0000  0.373770  0.536070  0.859160  Uiso  0.001267
    Ce1  Ce4+  1.0000  0.496720  0.632450  0.834620  Uiso  0.001267
    Ce1  Ce4+  1.0000  0.619670  0.728820  0.810070  Uiso  0.001267
    Ce1  Ce4+  1.0000  0.742620  0.825190  0.785520  Uiso  0.001267
    Ce1  Ce4+  1.0000  0.865570  0.921570  0.760970  Uiso  0.001267
    Ce1  Ce4+  1.0000  0.000000  0.000000  0.920530  Uiso  0.001267
    Ce1  Ce4+  1.0000  0.122950  0.096370  0.895980  Uiso  0.001267
    Ce1  Ce4+  1.0000  0.245900  0.192750  0.871440  Uiso  0.001267
    Ce1  Ce4+  1.0000  0.368850  0.289120  0.846890  Uiso  0.001267
    Ce1  Ce4+  1.0000  0.491800  0.385490  0.822340  Uiso  0.001267
    Ce1  Ce4+  1.0000  0.614750  0.481860  0.797790  Uiso  0.001267
    Ce1  Ce4+  1.0000  0.737700  0.578240  0.773250  Uiso  0.001267
    Ce1  Ce4+  1.0000  0.860650  0.674610  0.748700  Uiso  0.001267
    Ce1  Ce4+  1.0000  0.983600  0.770980  0.724150  Uiso  0.001267
    Ce1  Ce4+  1.0000  0.363930  0.042160  0.834620  Uiso  0.001267
    Ce1  Ce4+  1.0000  0.486880  0.138540  0.810070  Uiso  0.001267
    Ce1  Ce4+  1.0000  0.609830  0.234910  0.785520  Uiso  0.001267
    Ce1  Ce4+  1.0000  0.732780  0.331280  0.760970  Uiso  0.001267
    Ce1  Ce4+  1.0000  0.855730  0.427650  0.736430  Uiso  0.001267
    Ce1  Ce4+  1.0000  0.978680  0.524030  0.711880  Uiso  0.001267
    Ce1  Ce4+  1.0000  0.727870  0.084330  0.748700  Uiso  0.001267
    Ce1  Ce4+  1.0000  0.850820  0.180700  0.724150  Uiso  0.001267
    Ce1  Ce4+  1.0000  0.973770  0.277070  0.699600  Uiso  0.001267
    Ce1  Ce4+  1.0000  0.968850  0.030120  0.687330  Uiso  0.001267
    Ce1  Ce4+  1.0000  0.019670  0.987820  0.895980  Uiso  0.001267
    Ce1  Ce4+  1.0000  0.014750  0.740870  0.883710  Uiso  0.001267
    Ce1  Ce4+  1.0000  0.137700  0.837240  0.859160  Uiso  0.001267
    Ce1  Ce4+  1.0000  0.260650  0.933610  0.834620  Uiso  0.001267
    Ce1  Ce4+  1.0000  0.009840  0.493910  0.871440  Uiso  0.001267
    Ce1  Ce4+  1.0000  0.132790  0.590280  0.846890  Uiso  0.001267
    Ce1  Ce4+  1.0000  0.255740  0.686660  0.822340  Uiso  0.001267
    Ce1  Ce4+  1.0000  0.378690  0.783030  0.797790  Uiso  0.001267
    Ce1  Ce4+  1.0000  0.501640  0.879400  0.773250  Uiso  0.001267
    Ce1  Ce4+  1.0000  0.624590  0.975780  0.748700  Uiso  0.001267
    Ce1  Ce4+  1.0000  0.004920  0.246960  0.859160  Uiso  0.001267
    Ce1  Ce4+  1.0000  0.127870  0.343330  0.834620  Uiso  0.001267
    Ce1  Ce4+  1.0000  0.250820  0.439700  0.810070  Uiso  0.001267
    Ce1  Ce4+  1.0000  0.373770  0.536070  0.785520  Uiso  0.001267
    Ce1  Ce4+  1.0000  0.496720  0.632450  0.760970  Uiso  0.001267
    Ce1  Ce4+  1.0000  0.619670  0.728820  0.736430  Uiso  0.001267
    Ce1  Ce4+  1.0000  0.742620  0.825190  0.711880  Uiso  0.001267
    Ce1  Ce4+  1.0000  0.865570  0.921570  0.687330  Uiso  0.001267
    Ce1  Ce4+  1.0000  0.000000  0.000000  0.846890  Uiso  0.001267
    Ce1  Ce4+  1.0000  0.122950  0.096370  0.822340  Uiso  0.001267
    Ce1  Ce4+  1.0000  0.245900  0.192750  0.797790  Uiso  0.001267
    Ce1  Ce4+  1.0000  0.368850  0.289120  0.773250  Uiso  0.001267
    Ce1  Ce4+  1.0000  0.491800  0.385490  0.748700  Uiso  0.001267
    Ce1  Ce4+  1.0000  0.614750  0.481860  0.724150  Uiso  0.001267
    Ce1  Ce4+  1.0000  0.737700  0.578240  0.699600  Uiso  0.001267
    Ce1  Ce4+  1.0000  0.860650  0.674610  0.675060  Uiso  0.001267
    Ce1  Ce4+  1.0000  0.983600  0.770980  0.650510  Uiso  0.001267
    Ce1  Ce4+  1.0000  0.363930  0.042160  0.760970  Uiso  0.001267
    Ce1  Ce4+  1.0000  0.486880  0.138540  0.736430  Uiso  0.001267
    Ce1  Ce4+  1.0000  0.609830  0.234910  0.711880  Uiso  0.001267
    Ce1  Ce4+  1.0000  0.732780  0.331280  0.687330  Uiso  0.001267
    Ce1  Ce4+  1.0000  0.855730  0.427650  0.662780  Uiso  0.001267
    Ce1  Ce4+  1.0000  0.978680  0.524030  0.638240  Uiso  0.001267
    Ce1  Ce4+  1.0000  0.727870  0.084330  0.675060  Uiso  0.001267
    Ce1  Ce4+  1.0000  0.850820  0.180700  0.650510  Uiso  0.001267
    Ce1  Ce4+  1.0000  0.973770  0.277070  0.625960  Uiso  0.001267
    Ce1  Ce4+  1.0000  0.968850  0.030120  0.613690  Uiso  0.001267
    Ce1  Ce4+  1.0000  0.019670  0.987820  0.822340  Uiso  0.001267
    Ce1  Ce4+  1.0000  0.014750  0.740870  0.810070  Uiso  0.001267
    Ce1  Ce4+  1.0000  0.137700  0.837240  0.785520  Uiso  0.001267
    Ce1  Ce4+  1.0000  0.260650  0.933610  0.760970  Uiso  0.001267
    Ce1  Ce4+  1.0000  0.009840  0.493910  0.797790  Uiso  0.001267
    Ce1  Ce4+  1.0000  0.132790  0.590280  0.773250  Uiso  0.001267
    Ce1  Ce4+  1.0000  0.255740  0.686660  0.748700  Uiso  0.001267
    Ce1  Ce4+  1.0000  0.378690  0.783030  0.724150  Uiso  0.001267
    Ce1  Ce4+  1.0000  0.501640  0.879400  0.699600  Uiso  0.001267
    Ce1  Ce4+  1.0000  0.624590  0.975780  0.675060  Uiso  0.001267
    Ce1  Ce4+  1.0000  0.004920  0.246960  0.785520  Uiso  0.001267
    Ce1  Ce4+  1.0000  0.127870  0.343330  0.760970  Uiso  0.001267
    Ce1  Ce4+  1.0000  0.250820  0.439700  0.736430  Uiso  0.001267
    Ce1  Ce4+  1.0000  0.373770  0.536070  0.711880  Uiso  0.001267
    Ce1  Ce4+  1.0000  0.496720  0.632450  0.687330  Uiso  0.001267
    Ce1  Ce4+  1.0000  0.619670  0.728820  0.662780  Uiso  0.001267
    Ce1  Ce4+  1.0000  0.742620  0.825190  0.638240  Uiso  0.001267
    Ce1  Ce4+  1.0000  0.865570  0.921570  0.613690  Uiso  0.001267
    Ce1  Ce4+  1.0000  0.000000  0.000000  0.773250  Uiso  0.001267
    Ce1  Ce4+  1.0000  0.122950  0.096370  0.748700  Uiso  0.001267
    Ce1  Ce4+  1.0000  0.245900  0.192750  0.724150  Uiso  0.001267
    Ce1  Ce4+  1.0000  0.368850  0.289120  0.699600  Uiso  0.001267
    Ce1  Ce4+  1.0000  0.491800  0.385490  0.675060  Uiso  0.001267
    Ce1  Ce4+  1.0000  0.614750  0.481860  0.650510  Uiso  0.001267
    Ce1  Ce4+  1.0000  0.737700  0.578240  0.625960  Uiso  0.001267
    Ce1  Ce4+  1.0000  0.860650  0.674610  0.601410  Uiso  0.001267
    Ce1  Ce4+  1.0000  0.983600  0.770980  0.576870  Uiso  0.001267
    Ce1  Ce4+  1.0000  0.363930  0.042160  0.687330  Uiso  0.001267
    Ce1  Ce4+  1.0000  0.486880  0.138540  0.662780  Uiso  0.001267
    Ce1  Ce4+  1.0000  0.609830  0.234910  0.638240  Uiso  0.001267
    Ce1  Ce4+  1.0000  0.732780  0.331280  0.613690  Uiso  0.001267
    Ce1  Ce4+  1.0000  0.855730  0.427650  0.589140  Uiso  0.001267
    Ce1  Ce4+  1.0000  0.978680  0.524030  0.564590  Uiso  0.001267
    Ce1  Ce4+  1.0000  0.727870  0.084330  0.601410  Uiso  0.001267
    Ce1  Ce4+  1.0000  0.850820  0.180700  0.576870  Uiso  0.001267
    Ce1  Ce4+  1.0000  0.973770  0.277070  0.552320  Uiso  0.001267
    Ce1  Ce4+  1.0000  0.968850  0.030120  0.540050  Uiso  0.001267
    Ce1  Ce4+  1.0000  0.019670  0.987820  0.748700  Uiso  0.001267
    Ce1  Ce4+  1.0000  0.014750  0.740870  0.736430  Uiso  0.001267
    Ce1  Ce4+  1.0000  0.137700  0.837240  0.711880  Uiso  0.001267
    Ce1  Ce4+  1.0000  0.260650  0.933610  0.687330  Uiso  0.001267
    Ce1  Ce4+  1.0000  0.009840  0.493910  0.724150  Uiso  0.001267
    Ce1  Ce4+  1.0000  0.132790  0.590280  0.699600  Uiso  0.001267
    Ce1  Ce4+  1.0000  0.255740  0.686660  0.675060  Uiso  0.001267
    Ce1  Ce4+  1.0000  0.378690  0.783030  0.650510  Uiso  0.001267
    Ce1  Ce4+  1.0000  0.501640  0.879400  0.625960  Uiso  0.001267
    Ce1  Ce4+  1.0000  0.624590  0.975780  0.601410  Uiso  0.001267
    Ce1  Ce4+  1.0000  0.004920  0.246960  0.711880  Uiso  0.001267
    Ce1  Ce4+  1.0000  0.127870  0.343330  0.687330  Uiso  0.001267
    Ce1  Ce4+  1.0000  0.250820  0.439700  0.662780  Uiso  0.001267
    Ce1  Ce4+  1.0000  0.373770  0.536070  0.638240  Uiso  0.001267
    Ce1  Ce4+  1.0000  0.496720  0.632450  0.613690  Uiso  0.001267
    Ce1  Ce4+  1.0000  0.619670  0.728820  0.589140  Uiso  0.001267
    Ce1  Ce4+  1.0000  0.742620  0.825190  0.564590  Uiso  0.001267
    Ce1  Ce4+  1.0000  0.865570  0.921570  0.540050  Uiso  0.001267
    Ce1  Ce4+  1.0000  0.000000  0.000000  0.699600  Uiso  0.001267
    Ce1  Ce4+  1.0000  0.122950  0.096370  0.675060  Uiso  0.001267
    Ce1  Ce4+  1.0000  0.245900  0.192750  0.650510  Uiso  0.001267
    Ce1  Ce4+  1.0000  0.368850  0.289120  0.625960  Uiso  0.001267
    Ce1  Ce4+  1.0000  0.491800  0.385490  0.601410  Uiso  0.001267
    Ce1  Ce4+  1.0000  0.614750  0.481860  0.576870  Uiso  0.001267
    Ce1  Ce4+  1.0000  0.737700  0.578240  0.552320  Uiso  0.001267
    Ce1  Ce4+  1.0000  0.860650  0.674610  0.527770  Uiso  0.001267
    Ce1  Ce4+  1.0000  0.983600  0.770980  0.503220  Uiso  0.001267
    Ce1  Ce4+  1.0000  0.363930  0.042160  0.613690  Uiso  0.001267
    Ce1  Ce4+  1.0000  0.486880  0.138540  0.589140  Uiso  0.001267
    Ce1  Ce4+  1.0000  0.609830  0.234910  0.564590  Uiso  0.001267
    Ce1  Ce4+  1.0000  0.732780  0.331280  0.540050  Uiso  0.001267
    Ce1  Ce4+  1.0000  0.855730  0.427650  0.515500  Uiso  0.001267
    Ce1  Ce4+  1.0000  0.978680  0.524030  0.490950  Uiso  0.001267
    Ce1  Ce4+  1.0000  0.727870  0.084330  0.527770  Uiso  0.001267
    Ce1  Ce4+  1.0000  0.850820  0.180700  0.503220  Uiso  0.001267
    Ce1  Ce4+  1.0000  0.973770  0.277070  0.478680  Uiso  0.001267
    Ce1  Ce4+  1.0000  0.968850  0.030120  0.466400  Uiso  0.001267
    Ce1  Ce4+  1.0000  0.019670  0.987820  0.675060  Uiso  0.001267
    Ce1  Ce4+  1.0000  0.014750  0.740870  0.662780  Uiso  0.001267
    Ce1  Ce4+  1.0000  0.137700  0.837240  0.638240  Uiso  0.001267
    Ce1  Ce4+  1.0000  0.260650  0.933610  0.613690  Uiso  0.001267
    Ce1  Ce4+  1.0000  0.009840  0.493910  0.650510  Uiso  0.001267
    Ce1  Ce4+  1.0000  0.132790  0.590280  0.625960  Uiso  0.001267
    Ce1  Ce4+  1.0000  0.255740  0.686660  0.601410  Uiso  0.001267
    Ce1  Ce4+  1.0000  0.378690  0.783030  0.576870  Uiso  0.001267
    Ce1  Ce4+  1.0000  0.501640  0.879400  0.552320  Uiso  0.001267
    Ce1  Ce4+  1.0000  0.624590  0.975780  0.527770  Uiso  0.001267
    Ce1  Ce4+  1.0000  0.004920  0.246960  0.638240  Uiso  0.001267
    Ce1  Ce4+  1.0000  0.127870  0.343330  0.613690  Uiso  0.001267
    Ce1  Ce4+  1.0000  0.250820  0.439700  0.589140  Uiso  0.001267
    Ce1  Ce4+  1.0000  0.373770  0.536070  0.564590  Uiso  0.001267
    Ce1  Ce4+  1.0000  0.496720  0.632450  0.540050  Uiso  0.001267
    Ce1  Ce4+  1.0000  0.619670  0.728820  0.515500  Uiso  0.001267
    Ce1  Ce4+  1.0000  0.742620  0.825190  0.490950  Uiso  0.001267
    Ce1  Ce4+  1.0000  0.865570  0.921570  0.466400  Uiso  0.001267
    Ce1  Ce4+  1.0000  0.000000  0.000000  0.625960  Uiso  0.001267
    Ce1  Ce4+  1.0000  0.122950  0.096370  0.601410  Uiso  0.001267
    Ce1  Ce4+  1.0000  0.245900  0.192750  0.576870  Uiso  0.001267
    Ce1  Ce4+  1.0000  0.368850  0.289120  0.552320  Uiso  0.001267
    Ce1  Ce4+  1.0000  0.491800  0.385490  0.527770  Uiso  0.001267
    Ce1  Ce4+  1.0000  0.614750  0.481860  0.503220  Uiso  0.001267
    Ce1  Ce4+  1.0000  0.737700  0.578240  0.478680  Uiso  0.001267
    Ce1  Ce4+  1.0000  0.860650  0.674610  0.454130  Uiso  0.001267
    Ce1  Ce4+  1.0000  0.983600  0.770980  0.429580  Uiso  0.001267
    Ce1  Ce4+  1.0000  0.363930  0.042160  0.540050  Uiso  0.001267
    Ce1  Ce4+  1.0000  0.486880  0.138540  0.515500  Uiso  0.001267
    Ce1  Ce4+  1.0000  0.609830  0.234910  0.490950  Uiso  0.001267
    Ce1  Ce4+  1.0000  0.732780  0.331280  0.466400  Uiso  0.001267
    Ce1  Ce4+  1.0000  0.855730  0.427650  0.441860  Uiso  0.001267
    Ce1  Ce4+  1.0000  0.978680  0.524030  0.417310  Uiso  0.001267
    Ce1  Ce4+  1.0000  0.727870  0.084330  0.454130  Uiso  0.001267
    Ce1  Ce4+  1.0000  0.850820  0.180700  0.429580  Uiso  0.001267
    Ce1  Ce4+  1.0000  0.973770  0.277070  0.405030  Uiso  0.001267
    Ce1  Ce4+  1.0000  0.968850  0.030120  0.392760  Uiso  0.001267
    Ce1  Ce4+  1.0000  0.019670  0.987820  0.601410  Uiso  0.001267
    Ce1  Ce4+  1.0000  0.014750  0.740870  0.589140  Uiso  0.001267
    Ce1  Ce4+  1.0000  0.137700  0.837240  0.564590  Uiso  0.001267
    Ce1  Ce4+  1.0000  0.260650  0.933610  0.540050  Uiso  0.001267
    Ce1  Ce4+  1.0000  0.009840  0.493910  0.576870  Uiso  0.001267
    Ce1  Ce4+  1.0000  0.132790  0.590280  0.552320  Uiso  0.001267
    Ce1  Ce4+  1.0000  0.255740  0.686660  0.527770  Uiso  0.001267
    Ce1  Ce4+  1.0000  0.378690  0.783030  0.503220  Uiso  0.001267
    Ce1  Ce4+  1.0000  0.501640  0.879400  0.478680  Uiso  0.001267
    Ce1  Ce4+  1.0000  0.624590  0.975780  0.454130  Uiso  0.001267
    Ce1  Ce4+  1.0000  0.004920  0.246960  0.564590  Uiso  0.001267
    Ce1  Ce4+  1.0000  0.127870  0.343330  0.540050  Uiso  0.001267
    Ce1  Ce4+  1.0000  0.250820  0.439700  0.515500  Uiso  0.001267
    Ce1  Ce4+  1.0000  0.373770  0.536070  0.490950  Uiso  0.001267
    Ce1  Ce4+  1.0000  0.496720  0.632450  0.466400  Uiso  0.001267
    Ce1  Ce4+  1.0000  0.619670  0.728820  0.441860  Uiso  0.001267
    Ce1  Ce4+  1.0000  0.742620  0.825190  0.417310  Uiso  0.001267
    Ce1  Ce4+  1.0000  0.865570  0.921570  0.392760  Uiso  0.001267
    Ce1  Ce4+  1.0000  0.000000  0.000000  0.552320  Uiso  0.001267
    Ce1  Ce4+  1.0000  0.122950  0.096370  0.527770  Uiso  0.001267
    Ce1  Ce4+  1.0000  0.245900  0.192750  0.503220  Uiso  0.001267
    Ce1  Ce4+  1.0000  0.368850  0.289120  0.478680  Uiso  0.001267
    Ce1  Ce4+  1.0000  0.491800  0.385490  0.454130  Uiso  0.001267
    Ce1  Ce4+  1.0000  0.614750  0.481860  0.429580  Uiso  0.001267
    Ce1  Ce4+  1.0000  0.737700  0.578240  0.405030  Uiso  0.001267
    Ce1  Ce4+  1.0000  0.860650  0.674610  0.380490  Uiso  0.001267
    Ce1  Ce4+  1.0000  0.983600  0.770980  0.355940  Uiso  0.001267
    Ce1  Ce4+  1.0000  0.363930  0.042160  0.466400  Uiso  0.001267
    Ce1  Ce4+  1.0000  0.486880  0.138540  0.441860  Uiso  0.001267
    Ce1  Ce4+  1.0000  0.609830  0.234910  0.417310  Uiso  0.001267
    Ce1  Ce4+  1.0000  0.732780  0.331280  0.392760  Uiso  0.001267
    Ce1  Ce4+  1.0000  0.855730  0.427650  0.368210  Uiso  0.001267
    Ce1  Ce4+  1.0000  0.978680  0.524030  0.343670  Uiso  0.001267
    Ce1  Ce4+  1.0000  0.727870  0.084330  0.380490  Uiso  0.001267
    Ce1  Ce4+  1.0000  0.850820  0.180700  0.355940  Uiso  0.001267
    Ce1  Ce4+  1.0000  0.973770  0.277070  0.331390  Uiso  0.001267
    Ce1  Ce4+  1.0000  0.968850  0.030120  0.319120  Uiso  0.001267
    Ce1  Ce4+  1.0000  0.019670  0.987820  0.527770  Uiso  0.001267
    Ce1  Ce4+  1.0000  0.014750  0.740870  0.515500  Uiso  0.001267
    Ce1  Ce4+  1.0000  0.137700  0.837240  0.490950  Uiso  0.001267
    Ce1  Ce4+  1.0000  0.260650  0.933610  0.466400  Uiso  0.001267
    Ce1  Ce4+  1.0000  0.009840  0.493910  0.503220  Uiso  0.001267
    Ce1  Ce4+  1.0000  0.132790  0.590280  0.478680  Uiso  0.001267
    Ce1  Ce4+  1.0000  0.255740  0.686660  0.454130  Uiso  0.001267
    Ce1  Ce4+  1.0000  0.378690  0.783030  0.429580  Uiso  0.001267
    Ce1  Ce4+  1.0000  0.501640  0.879400  0.405030  Uiso  0.001267
    Ce1  Ce4+  1.0000  0.624590  0.975780  0.380490  Uiso  0.001267
    Ce1  Ce4+  1.0000  0.004920  0.246960  0.490950  Uiso  0.001267
    Ce1  Ce4+  1.0000  0.127870  0.343330  0.466400  Uiso  0.001267
    Ce1  Ce4+  1.0000  0.250820  0.439700  0.441860  Uiso  0.001267
    Ce1  Ce4+  1.0000  0.373770  0.536070  0.417310  Uiso  0.001267
    Ce1  Ce4+  1.0000  0.496720  0.632450  0.392760  Uiso  0.001267
    Ce1  Ce4+  1.0000  0.619670  0.728820  0.368210  Uiso  0.001267
    Ce1  Ce4+  1.0000  0.742620  0.825190  0.343670  Uiso  0.001267
    Ce1  Ce4+  1.0000  0.865570  0.921570  0.319120  Uiso  0.001267
    Ce1  Ce4+  1.0000  0.000000  0.000000  0.478680  Uiso  0.001267
    Ce1  Ce4+  1.0000  0.122950  0.096370  0.454130  Uiso  0.001267
    Ce1  Ce4+  1.0000  0.245900  0.192750  0.429580  Uiso  0.001267
    Ce1  Ce4+  1.0000  0.368850  0.289120  0.405030  Uiso  0.001267
    Ce1  Ce4+  1.0000  0.491800  0.385490  0.380490  Uiso  0.001267
    Ce1  Ce4+  1.0000  0.614750  0.481860  0.355940  Uiso  0.001267
    Ce1  Ce4+  1.0000  0.737700  0.578240  0.331390  Uiso  0.001267
    Ce1  Ce4+  1.0000  0.860650  0.674610  0.306840  Uiso  0.001267
    Ce1  Ce4+  1.0000  0.983600  0.770980  0.282300  Uiso  0.001267
    Ce1  Ce4+  1.0000  0.363930  0.042160  0.392760  Uiso  0.001267
    Ce1  Ce4+  1.0000  0.486880  0.138540  0.368210  Uiso  0.001267
    Ce1  Ce4+  1.0000  0.609830  0.234910  0.343670  Uiso  0.001267
    Ce1  Ce4+  1.0000  0.732780  0.331280  0.319120  Uiso  0.001267
    Ce1  Ce4+  1.0000  0.855730  0.427650  0.294570  Uiso  0.001267
    Ce1  Ce4+  1.0000  0.978680  0.524030  0.270020  Uiso  0.001267
    Ce1  Ce4+  1.0000  0.727870  0.084330  0.306840  Uiso  0.001267
    Ce1  Ce4+  1.0000  0.850820  0.180700  0.282300  Uiso  0.001267
    Ce1  Ce4+  1.0000  0.973770  0.277070  0.257750  Uiso  0.001267
    Ce1  Ce4+  1.0000  0.968850  0.030120  0.245480  Uiso  0.001267
    Ce1  Ce4+  1.0000  0.019670  0.987820  0.454130  Uiso  0.001267
    Ce1  Ce4+  1.0000  0.014750  0.740870  0.441860  Uiso  0.001267
    Ce1  Ce4+  1.0000  0.137700  0.837240  0.417310  Uiso  0.001267
    Ce1  Ce4+  1.0000  0.260650  0.933610  0.392760  Uiso  0.001267
    Ce1  Ce4+  1.0000  0.009840  0.493910  0.429580  Uiso  0.001267
    Ce1  Ce4+  1.0000  0.132790  0.590280  0.405030  Uiso  0.001267
    Ce1  Ce4+  1.0000  0.255740  0.686660  0.380490  Uiso  0.001267
    Ce1  Ce4+  1.0000  0.378690  0.783030  0.355940  Uiso  0.001267
    Ce1  Ce4+  1.0000  0.501640  0.879400  0.331390  Uiso  0.001267
    Ce1  Ce4+  1.0000  0.624590  0.975780  0.306840  Uiso  0.001267
    Ce1  Ce4+  1.0000  0.004920  0.246960  0.417310  Uiso  0.001267
    Ce1  Ce4+  1.0000  0.127870  0.343330  0.392760  Uiso  0.001267
    Ce1  Ce4+  1.0000  0.250820  0.439700  0.368210  Uiso  0.001267
    Ce1  Ce4+  1.0000  0.373770  0.536070  0.343670  Uiso  0.001267
    Ce1  Ce4+  1.0000  0.496720  0.632450  0.319120  Uiso  0.001267
    Ce1  Ce4+  1.0000  0.619670  0.728820  0.294570  Uiso  0.001267
    Ce1  Ce4+  1.0000  0.742620  0.825190  0.270020  Uiso  0.001267
    Ce1  Ce4+  1.0000  0.865570  0.921570  0.245480  Uiso  0.001267
    Ce1  Ce4+  1.0000  0.000000  0.000000  0.405030  Uiso  0.001267
    Ce1  Ce4+  1.0000  0.122950  0.096370  0.380490  Uiso  0.001267
    Ce1  Ce4+  1.0000  0.245900  0.192750  0.355940  Uiso  0.001267
    Ce1  Ce4+  1.0000  0.368850  0.289120  0.331390  Uiso  0.001267
    Ce1  Ce4+  1.0000  0.491800  0.385490  0.306840  Uiso  0.001267
    Ce1  Ce4+  1.0000  0.614750  0.481860  0.282300  Uiso  0.001267
    Ce1  Ce4+  1.0000  0.737700  0.578240  0.257750  Uiso  0.001267
    Ce1  Ce4+  1.0000  0.860650  0.674610  0.233200  Uiso  0.001267
    Ce1  Ce4+  1.0000  0.983600  0.770980  0.208650  Uiso  0.001267
    Ce1  Ce4+  1.0000  0.363930  0.042160  0.319120  Uiso  0.001267
    Ce1  Ce4+  1.0000  0.486880  0.138540  0.294570  Uiso  0.001267
    Ce1  Ce4+  1.0000  0.609830  0.234910  0.270020  Uiso  0.001267
    Ce1  Ce4+  1.0000  0.732780  0.331280  0.245480  Uiso  0.001267
    Ce1  Ce4+  1.0000  0.855730  0.427650  0.220930  Uiso  0.001267
    Ce1  Ce4+  1.0000  0.978680  0.524030  0.196380  Uiso  0.001267
    Ce1  Ce4+  1.0000  0.727870  0.084330  0.233200  Uiso  0.001267
    Ce1  Ce4+  1.0000  0.850820  0.180700  0.208650  Uiso  0.001267
    Ce1  Ce4+  1.0000  0.973770  0.277070  0.184110  Uiso  0.001267
    Ce1  Ce4+  1.0000  0.968850  0.030120  0.171830  Uiso  0.001267
    Ce1  Ce4+  1.0000  0.019670  0.987820  0.380490  Uiso  0.001267
    Ce1  Ce4+  1.0000  0.014750  0.740870  0.368210  Uiso  0.001267
    Ce1  Ce4+  1.0000  0.137700  0.837240  0.343670  Uiso  0.001267
    Ce1  Ce4+  1.0000  0.260650  0.933610  0.319120  Uiso  0.001267
    Ce1  Ce4+  1.0000  0.009840  0.493910  0.355940  Uiso  0.001267
    Ce1  Ce4+  1.0000  0.132790  0.590280  0.331390  Uiso  0.001267
    Ce1  Ce4+  1.0000  0.255740  0.686660  0.306840  Uiso  0.001267
    Ce1  Ce4+  1.0000  0.378690  0.783030  0.282300  Uiso  0.001267
    Ce1  Ce4+  1.0000  0.501640  0.879400  0.257750  Uiso  0.001267
    Ce1  Ce4+  1.0000  0.624590  0.975780  0.233200  Uiso  0.001267
    Ce1  Ce4+  1.0000  0.004920  0.246960  0.343670  Uiso  0.001267
    Ce1  Ce4+  1.0000  0.127870  0.343330  0.319120  Uiso  0.001267
    Ce1  Ce4+  1.0000  0.250820  0.439700  0.294570  Uiso  0.001267
    Ce1  Ce4+  1.0000  0.373770  0.536070  0.270020  Uiso  0.001267
    Ce1  Ce4+  1.0000  0.496720  0.632450  0.245480  Uiso  0.001267
    Ce1  Ce4+  1.0000  0.619670  0.728820  0.220930  Uiso  0.001267
    Ce1  Ce4+  1.0000  0.742620  0.825190  0.196380  Uiso  0.001267
    Ce1  Ce4+  1.0000  0.865570  0.921570  0.171830  Uiso  0.001267
    Ce1  Ce4+  1.0000  0.000000  0.000000  0.331390  Uiso  0.001267
    Ce1  Ce4+  1.0000  0.122950  0.096370  0.306840  Uiso  0.001267
    Ce1  Ce4+  1.0000  0.245900  0.192750  0.282300  Uiso  0.001267
    Ce1  Ce4+  1.0000  0.368850  0.289120  0.257750  Uiso  0.001267
    Ce1  Ce4+  1.0000  0.491800  0.385490  0.233200  Uiso  0.001267
    Ce1  Ce4+  1.0000  0.614750  0.481860  0.208650  Uiso  0.001267
    Ce1  Ce4+  1.0000  0.737700  0.578240  0.184110  Uiso  0.001267
    Ce1  Ce4+  1.0000  0.860650  0.674610  0.159560  Uiso  0.001267
    Ce1  Ce4+  1.0000  0.983600  0.770980  0.135010  Uiso  0.001267
    Ce1  Ce4+  1.0000  0.363930  0.042160  0.245480  Uiso  0.001267
    Ce1  Ce4+  1.0000  0.486880  0.138540  0.220930  Uiso  0.001267
    Ce1  Ce4+  1.0000  0.609830  0.234910  0.196380  Uiso  0.001267
    Ce1  Ce4+  1.0000  0.732780  0.331280  0.171830  Uiso  0.001267
    Ce1  Ce4+  1.0000  0.855730  0.427650  0.147290  Uiso  0.001267
    Ce1  Ce4+  1.0000  0.978680  0.524030  0.122740  Uiso  0.001267
    Ce1  Ce4+  1.0000  0.727870  0.084330  0.159560  Uiso  0.001267
    Ce1  Ce4+  1.0000  0.850820  0.180700  0.135010  Uiso  0.001267
    Ce1  Ce4+  1.0000  0.973770  0.277070  0.110460  Uiso  0.001267
    Ce1  Ce4+  1.0000  0.968850  0.030120  0.098190  Uiso  0.001267
    Ce1  Ce4+  1.0000  0.019670  0.987820  0.306840  Uiso  0.001267
    Ce1  Ce4+  1.0000  0.014750  0.740870  0.294570  Uiso  0.001267
    Ce1  Ce4+  1.0000  0.137700  0.837240  0.270020  Uiso  0.001267
    Ce1  Ce4+  1.0000  0.260650  0.933610  0.245480  Uiso  0.001267
    Ce1  Ce4+  1.0000  0.009840  0.493910  0.282300  Uiso  0.001267
    Ce1  Ce4+  1.0000  0.132790  0.590280  0.257750  Uiso  0.001267
    Ce1  Ce4+  1.0000  0.255740  0.686660  0.233200  Uiso  0.001267
    Ce1  Ce4+  1.0000  0.378690  0.783030  0.208650  Uiso  0.001267
    Ce1  Ce4+  1.0000  0.501640  0.879400  0.184110  Uiso  0.001267
    Ce1  Ce4+  1.0000  0.624590  0.975780  0.159560  Uiso  0.001267
    Ce1  Ce4+  1.0000  0.004920  0.246960  0.270020  Uiso  0.001267
    Ce1  Ce4+  1.0000  0.127870  0.343330  0.245480  Uiso  0.001267
    Ce1  Ce4+  1.0000  0.250820  0.439700  0.220930  Uiso  0.001267
    Ce1  Ce4+  1.0000  0.373770  0.536070  0.196380  Uiso  0.001267
    Ce1  Ce4+  1.0000  0.496720  0.632450  0.171830  Uiso  0.001267
    Ce1  Ce4+  1.0000  0.619670  0.728820  0.147290  Uiso  0.001267
    Ce1  Ce4+  1.0000  0.742620  0.825190  0.122740  Uiso  0.001267
    Ce1  Ce4+  1.0000  0.865570  0.921570  0.098190  Uiso  0.001267
    Ce1  Ce4+  1.0000  0.000000  0.000000  0.257750  Uiso  0.001267
    Ce1  Ce4+  1.0000  0.122950  0.096370  0.233200  Uiso  0.001267
    Ce1  Ce4+  1.0000  0.245900  0.192750  0.208650  Uiso  0.001267
    Ce1  Ce4+  1.0000  0.368850  0.289120  0.184110  Uiso  0.001267
    Ce1  Ce4+  1.0000  0.491800  0.385490  0.159560  Uiso  0.001267
    Ce1  Ce4+  1.0000  0.614750  0.481860  0.135010  Uiso  0.001267
    Ce1  Ce4+  1.0000  0.737700  0.578240  0.110460  Uiso  0.001267
    Ce1  Ce4+  1.0000  0.860650  0.674610  0.085920  Uiso  0.001267
    Ce1  Ce4+  1.0000  0.983600  0.770980  0.061370  Uiso  0.001267
    Ce1  Ce4+  1.0000  0.363930  0.042160  0.171830  Uiso  0.001267
    Ce1  Ce4+  1.0000  0.486880  0.138540  0.147290  Uiso  0.001267
    Ce1  Ce4+  1.0000  0.609830  0.234910  0.122740  Uiso  0.001267
    Ce1  Ce4+  1.0000  0.732780  0.331280  0.098190  Uiso  0.001267
    Ce1  Ce4+  1.0000  0.855730  0.427650  0.073640  Uiso  0.001267
    Ce1  Ce4+  1.0000  0.978680  0.524030  0.049100  Uiso  0.001267
    Ce1  Ce4+  1.0000  0.727870  0.084330  0.085920  Uiso  0.001267
    Ce1  Ce4+  1.0000  0.850820  0.180700  0.061370  Uiso  0.001267
    Ce1  Ce4+  1.0000  0.973770  0.277070  0.036820  Uiso  0.001267
    Ce1  Ce4+  1.0000  0.968850  0.030120  0.024550  Uiso  0.001267
    Ce1  Ce4+  1.0000  0.019670  0.987820  0.233200  Uiso  0.001267
    Ce1  Ce4+  1.0000  0.014750  0.740870  0.220930  Uiso  0.001267
    Ce1  Ce4+  1.0000  0.137700  0.837240  0.196380  Uiso  0.001267
    Ce1  Ce4+  1.0000  0.260650  0.933610  0.171830  Uiso  0.001267
    Ce1  Ce4+  1.0000  0.009840  0.493910  0.208650  Uiso  0.001267
    Ce1  Ce4+  1.0000  0.132790  0.590280  0.184110  Uiso  0.001267
    Ce1  Ce4+  1.0000  0.255740  0.686660  0.159560  Uiso  0.001267
    Ce1  Ce4+  1.0000  0.378690  0.783030  0.135010  Uiso  0.001267
    Ce1  Ce4+  1.0000  0.501640  0.879400  0.110460  Uiso  0.001267
    Ce1  Ce4+  1.0000  0.624590  0.975780  0.085920  Uiso  0.001267
    Ce1  Ce4+  1.0000  0.004920  0.246960  0.196380  Uiso  0.001267
    Ce1  Ce4+  1.0000  0.127870  0.343330  0.171830  Uiso  0.001267
    Ce1  Ce4+  1.0000  0.250820  0.439700  0.147290  Uiso  0.001267
    Ce1  Ce4+  1.0000  0.373770  0.536070  0.122740  Uiso  0.001267
    Ce1  Ce4+  1.0000  0.496720  0.632450  0.098190  Uiso  0.001267
    Ce1  Ce4+  1.0000  0.619670  0.728820  0.073640  Uiso  0.001267
    Ce1  Ce4+  1.0000  0.742620  0.825190  0.049100  Uiso  0.001267
    Ce1  Ce4+  1.0000  0.865570  0.921570  0.024550  Uiso  0.001267
    Ce1  Ce4+  1.0000  0.000000  0.000000  0.184110  Uiso  0.001267
    Ce1  Ce4+  1.0000  0.122950  0.096370  0.159560  Uiso  0.001267
    Ce1  Ce4+  1.0000  0.245900  0.192750  0.135010  Uiso  0.001267
    Ce1  Ce4+  1.0000  0.368850  0.289120  0.110460  Uiso  0.001267
    Ce1  Ce4+  1.0000  0.491800  0.385490  0.085920  Uiso  0.001267
    Ce1  Ce4+  1.0000  0.614750  0.481860  0.061370  Uiso  0.001267
    Ce1  Ce4+  1.0000  0.737700  0.578240  0.036820  Uiso  0.001267
    Ce1  Ce4+  1.0000  0.860650  0.674610  0.012270  Uiso  0.001267
    Ce1  Ce4+  1.0000  0.363930  0.042160  0.098190  Uiso  0.001267
    Ce1  Ce4+  1.0000  0.486880  0.138540  0.073640  Uiso  0.001267
    Ce1  Ce4+  1.0000  0.609830  0.234910  0.049100  Uiso  0.001267
    Ce1  Ce4+  1.0000  0.732780  0.331280  0.024550  Uiso  0.001267
    Ce1  Ce4+  1.0000  0.855730  0.427650  0.000000  Uiso  0.001267
    Ce1  Ce4+  1.0000  0.727870  0.084330  0.012270  Uiso  0.001267
    Ce1  Ce4+  1.0000  0.019670  0.987820  0.159560  Uiso  0.001267
    Ce1  Ce4+  1.0000  0.014750  0.740870  0.147290  Uiso  0.001267
    Ce1  Ce4+  1.0000  0.137700  0.837240  0.122740  Uiso  0.001267
    Ce1  Ce4+  1.0000  0.260650  0.933610  0.098190  Uiso  0.001267
    Ce1  Ce4+  1.0000  0.009840  0.493910  0.135010  Uiso  0.001267
    Ce1  Ce4+  1.0000  0.132790  0.590280  0.110460  Uiso  0.001267
    Ce1  Ce4+  1.0000  0.255740  0.686660  0.085920  Uiso  0.001267
    Ce1  Ce4+  1.0000  0.378690  0.783030  0.061370  Uiso  0.001267
    Ce1  Ce4+  1.0000  0.501640  0.879400  0.036820  Uiso  0.001267
    Ce1  Ce4+  1.0000  0.624590  0.975780  0.012270  Uiso  0.001267
    Ce1  Ce4+  1.0000  0.004920  0.246960  0.122740  Uiso  0.001267
    Ce1  Ce4+  1.0000  0.127870  0.343330  0.098190  Uiso  0.001267
    Ce1  Ce4+  1.0000  0.250820  0.439700  0.073640  Uiso  0.001267
    Ce1  Ce4+  1.0000  0.373770  0.536070  0.049100  Uiso  0.001267
    Ce1  Ce4+  1.0000  0.496720  0.632450  0.024550  Uiso  0.001267
    Ce1  Ce4+  1.0000  0.619670  0.728820  0.000000  Uiso  0.001267
    Ce1  Ce4+  1.0000  0.000000  0.000000  0.110460  Uiso  0.001267
    Ce1  Ce4+  1.0000  0.122950  0.096370  0.085920  Uiso  0.001267
    Ce1  Ce4+  1.0000  0.245900  0.192750  0.061370  Uiso  0.001267
    Ce1  Ce4+  1.0000  0.368850  0.289120  0.036820  Uiso  0.001267
    Ce1  Ce4+  1.0000  0.491800  0.385490  0.012270  Uiso  0.001267
    Ce1  Ce4+  1.0000  0.363930  0.042160  0.024550  Uiso  0.001267
    Ce1  Ce4+  1.0000  0.486880  0.138540  0.000000  Uiso  0.001267
    Ce1  Ce4+  1.0000  0.019670  0.987820  0.085920  Uiso  0.001267
    Ce1  Ce4+  1.0000  0.014750  0.740870  0.073640  Uiso  0.001267
    Ce1  Ce4+  1.0000  0.137700  0.837240  0.049100  Uiso  0.001267
    Ce1  Ce4+  1.0000  0.260650  0.933610  0.024550  Uiso  0.001267
    Ce1  Ce4+  1.0000  0.009840  0.493910  0.061370  Uiso  0.001267
    Ce1  Ce4+  1.0000  0.132790  0.590280  0.036820  Uiso  0.001267
    Ce1  Ce4+  1.0000  0.255740  0.686660  0.012270  Uiso  0.001267
    Ce1  Ce4+  1.0000  0.004920  0.246960  0.049100  Uiso  0.001267
    Ce1  Ce4+  1.0000  0.127870  0.343330  0.024550  Uiso  0.001267
    Ce1  Ce4+  1.0000  0.250820  0.439700  0.000000  Uiso  0.001267
    Ce1  Ce4+  1.0000  0.000000  0.000000  0.036820  Uiso  0.001267
    Ce1  Ce4+  1.0000  0.122950  0.096370  0.012270  Uiso  0.001267
    Ce1  Ce4+  1.0000  0.019670  0.987820  0.012270  Uiso  0.001267
    Ce1  Ce4+  1.0000  0.014750  0.740870  0.000000  Uiso  0.001267
    Ce1  Ce4+  1.0000  0.919670  0.599320  0.988040  Uiso  0.001267
    Ce1  Ce4+  1.0000  0.914750  0.352360  0.975760  Uiso  0.001267
    Ce1  Ce4+  1.0000  0.786880  0.009030  0.988040  Uiso  0.001267
    Ce1  Ce4+  1.0000  0.909830  0.105410  0.963490  Uiso  0.001267
    Ce1  Ce4+  1.0000  0.683600  0.900480  0.988040  Uiso  0.001267
    Ce1  Ce4+  1.0000  0.806550  0.996860  0.963490  Uiso  0.001267
    Ce1  Ce4+  1.0000  0.678690  0.653530  0.975760  Uiso  0.001267
    Ce1  Ce4+  1.0000  0.801640  0.749900  0.951220  Uiso  0.001267
    Ce1  Ce4+  1.0000  0.924590  0.846270  0.926670  Uiso  0.001267
    Ce1  Ce4+  1.0000  0.550820  0.310200  0.988040  Uiso  0.001267
    Ce1  Ce4+  1.0000  0.673770  0.406570  0.963490  Uiso  0.001267
    Ce1  Ce4+  1.0000  0.796720  0.502950  0.938940  Uiso  0.001267
    Ce1  Ce4+  1.0000  0.919670  0.599320  0.914400  Uiso  0.001267
    Ce1  Ce4+  1.0000  0.545900  0.063240  0.975760  Uiso  0.001267
    Ce1  Ce4+  1.0000  0.668850  0.159620  0.951220  Uiso  0.001267
    Ce1  Ce4+  1.0000  0.791800  0.255990  0.926670  Uiso  0.001267
    Ce1  Ce4+  1.0000  0.914750  0.352360  0.902120  Uiso  0.001267
    Ce1  Ce4+  1.0000  0.786880  0.009030  0.914400  Uiso  0.001267
    Ce1  Ce4+  1.0000  0.909830  0.105410  0.889850  Uiso  0.001267
    Ce1  Ce4+  1.0000  0.442620  0.954690  0.975760  Uiso  0.001267
    Ce1  Ce4+  1.0000  0.314750  0.611370  0.988040  Uiso  0.001267
    Ce1  Ce4+  1.0000  0.437700  0.707740  0.963490  Uiso  0.001267
    Ce1  Ce4+  1.0000  0.560650  0.804110  0.938940  Uiso  0.001267
    Ce1  Ce4+  1.0000  0.683600  0.900480  0.914400  Uiso  0.001267
    Ce1  Ce4+  1.0000  0.806550  0.996860  0.889850  Uiso  0.001267
    Ce1  Ce4+  1.0000  0.309830  0.364410  0.975760  Uiso  0.001267
    Ce1  Ce4+  1.0000  0.432780  0.460780  0.951220  Uiso  0.001267
    Ce1  Ce4+  1.0000  0.555740  0.557160  0.926670  Uiso  0.001267
    Ce1  Ce4+  1.0000  0.678690  0.653530  0.902120  Uiso  0.001267
    Ce1  Ce4+  1.0000  0.801640  0.749900  0.877570  Uiso  0.001267
    Ce1  Ce4+  1.0000  0.924590  0.846270  0.853030  Uiso  0.001267
    Ce1  Ce4+  1.0000  0.181970  0.021080  0.988040  Uiso  0.001267
    Ce1  Ce4+  1.0000  0.304920  0.117450  0.963490  Uiso  0.001267
    Ce1  Ce4+  1.0000  0.427870  0.213830  0.938940  Uiso  0.001267
    Ce1  Ce4+  1.0000  0.550820  0.310200  0.914400  Uiso  0.001267
    Ce1  Ce4+  1.0000  0.673770  0.406570  0.889850  Uiso  0.001267
    Ce1  Ce4+  1.0000  0.796720  0.502950  0.865300  Uiso  0.001267
    Ce1  Ce4+  1.0000  0.919670  0.599320  0.840750  Uiso  0.001267
    Ce1  Ce4+  1.0000  0.545900  0.063240  0.902120  Uiso  0.001267
    Ce1  Ce4+  1.0000  0.668850  0.159620  0.877570  Uiso  0.001267
    Ce1  Ce4+  1.0000  0.791800  0.255990  0.853030  Uiso  0.001267
    Ce1  Ce4+  1.0000  0.914750  0.352360  0.828480  Uiso  0.001267
    Ce1  Ce4+  1.0000  0.786880  0.009030  0.840750  Uiso  0.001267
    Ce1  Ce4+  1.0000  0.909830  0.105410  0.816200  Uiso  0.001267
    Ce1  Ce4+  1.0000  0.078690  0.912530  0.988040  Uiso  0.001267
    Ce1  Ce4+  1.0000  0.073770  0.665580  0.975760  Uiso  0.001267
    Ce1  Ce4+  1.0000  0.196720  0.761950  0.951220  Uiso  0.001267
    Ce1  Ce4+  1.0000  0.319670  0.858320  0.926670  Uiso  0.001267
    Ce1  Ce4+  1.0000  0.442620  0.954690  0.902120  Uiso  0.001267
    Ce1  Ce4+  1.0000  0.068850  0.418620  0.963490  Uiso  0.001267
    Ce1  Ce4+  1.0000  0.191800  0.514990  0.938940  Uiso  0.001267
    Ce1  Ce4+  1.0000  0.314750  0.611370  0.914400  Uiso  0.001267
    Ce1  Ce4+  1.0000  0.437700  0.707740  0.889850  Uiso  0.001267
    Ce1  Ce4+  1.0000  0.560650  0.804110  0.865300  Uiso  0.001267
    Ce1  Ce4+  1.0000  0.683600  0.900480  0.840750  Uiso  0.001267
    Ce1  Ce4+  1.0000  0.806550  0.996860  0.816200  Uiso  0.001267
    Ce1  Ce4+  1.0000  0.063930  0.171660  0.951220  Uiso  0.001267
    Ce1  Ce4+  1.0000  0.186880  0.268040  0.926670  Uiso  0.001267
    Ce1  Ce4+  1.0000  0.309830  0.364410  0.902120  Uiso  0.001267
    Ce1  Ce4+  1.0000  0.432780  0.460780  0.877570  Uiso  0.001267
    Ce1  Ce4+  1.0000  0.555740  0.557160  0.853030  Uiso  0.001267
    Ce1  Ce4+  1.0000  0.678690  0.653530  0.828480  Uiso  0.001267
    Ce1  Ce4+  1.0000  0.801640  0.749900  0.803930  Uiso  0.001267
    Ce1  Ce4+  1.0000  0.924590  0.846270  0.779380  Uiso  0.001267
    Ce1  Ce4+  1.0000  0.181970  0.021080  0.914400  Uiso  0.001267
    Ce1  Ce4+  1.0000  0.304920  0.117450  0.889850  Uiso  0.001267
    Ce1  Ce4+  1.0000  0.427870  0.213830  0.865300  Uiso  0.001267
    Ce1  Ce4+  1.0000  0.550820  0.310200  0.840750  Uiso  0.001267
    Ce1  Ce4+  1.0000  0.673770  0.406570  0.816200  Uiso  0.001267
    Ce1  Ce4+  1.0000  0.796720  0.502950  0.791660  Uiso  0.001267
    Ce1  Ce4+  1.0000  0.919670  0.599320  0.767110  Uiso  0.001267
    Ce1  Ce4+  1.0000  0.545900  0.063240  0.828480  Uiso  0.001267
    Ce1  Ce4+  1.0000  0.668850  0.159620  0.803930  Uiso  0.001267
    Ce1  Ce4+  1.0000  0.791800  0.255990  0.779380  Uiso  0.001267
    Ce1  Ce4+  1.0000  0.914750  0.352360  0.754840  Uiso  0.001267
    Ce1  Ce4+  1.0000  0.786880  0.009030  0.767110  Uiso  0.001267
    Ce1  Ce4+  1.0000  0.909830  0.105410  0.742560  Uiso  0.001267
    Ce1  Ce4+  1.0000  0.078690  0.912530  0.914400  Uiso  0.001267
    Ce1  Ce4+  1.0000  0.073770  0.665580  0.902120  Uiso  0.001267
    Ce1  Ce4+  1.0000  0.196720  0.761950  0.877570  Uiso  0.001267
    Ce1  Ce4+  1.0000  0.319670  0.858320  0.853030  Uiso  0.001267
    Ce1  Ce4+  1.0000  0.442620  0.954690  0.828480  Uiso  0.001267
    Ce1  Ce4+  1.0000  0.068850  0.418620  0.889850  Uiso  0.001267
    Ce1  Ce4+  1.0000  0.191800  0.514990  0.865300  Uiso  0.001267
    Ce1  Ce4+  1.0000  0.314750  0.611370  0.840750  Uiso  0.001267
    Ce1  Ce4+  1.0000  0.437700  0.707740  0.816200  Uiso  0.001267
    Ce1  Ce4+  1.0000  0.560650  0.804110  0.791660  Uiso  0.001267
    Ce1  Ce4+  1.0000  0.683600  0.900480  0.767110  Uiso  0.001267
    Ce1  Ce4+  1.0000  0.806550  0.996860  0.742560  Uiso  0.001267
    Ce1  Ce4+  1.0000  0.063930  0.171660  0.877570  Uiso  0.001267
    Ce1  Ce4+  1.0000  0.186880  0.268040  0.853030  Uiso  0.001267
    Ce1  Ce4+  1.0000  0.309830  0.364410  0.828480  Uiso  0.001267
    Ce1  Ce4+  1.0000  0.432780  0.460780  0.803930  Uiso  0.001267
    Ce1  Ce4+  1.0000  0.555740  0.557160  0.779380  Uiso  0.001267
    Ce1  Ce4+  1.0000  0.678690  0.653530  0.754840  Uiso  0.001267
    Ce1  Ce4+  1.0000  0.801640  0.749900  0.730290  Uiso  0.001267
    Ce1  Ce4+  1.0000  0.924590  0.846270  0.705740  Uiso  0.001267
    Ce1  Ce4+  1.0000  0.181970  0.021080  0.840750  Uiso  0.001267
    Ce1  Ce4+  1.0000  0.304920  0.117450  0.816200  Uiso  0.001267
    Ce1  Ce4+  1.0000  0.427870  0.213830  0.791660  Uiso  0.001267
    Ce1  Ce4+  1.0000  0.550820  0.310200  0.767110  Uiso  0.001267
    Ce1  Ce4+  1.0000  0.673770  0.406570  0.742560  Uiso  0.001267
    Ce1  Ce4+  1.0000  0.796720  0.502950  0.718010  Uiso  0.001267
    Ce1  Ce4+  1.0000  0.919670  0.599320  0.693470  Uiso  0.001267
    Ce1  Ce4+  1.0000  0.545900  0.063240  0.754840  Uiso  0.001267
    Ce1  Ce4+  1.0000  0.668850  0.159620  0.730290  Uiso  0.001267
    Ce1  Ce4+  1.0000  0.791800  0.255990  0.705740  Uiso  0.001267
    Ce1  Ce4+  1.0000  0.914750  0.352360  0.681190  Uiso  0.001267
    Ce1  Ce4+  1.0000  0.786880  0.009030  0.693470  Uiso  0.001267
    Ce1  Ce4+  1.0000  0.909830  0.105410  0.668920  Uiso  0.001267
    Ce1  Ce4+  1.0000  0.078690  0.912530  0.840750  Uiso  0.001267
    Ce1  Ce4+  1.0000  0.073770  0.665580  0.828480  Uiso  0.001267
    Ce1  Ce4+  1.0000  0.196720  0.761950  0.803930  Uiso  0.001267
    Ce1  Ce4+  1.0000  0.319670  0.858320  0.779380  Uiso  0.001267
    Ce1  Ce4+  1.0000  0.442620  0.954690  0.754840  Uiso  0.001267
    Ce1  Ce4+  1.0000  0.068850  0.418620  0.816200  Uiso  0.001267
    Ce1  Ce4+  1.0000  0.191800  0.514990  0.791660  Uiso  0.001267
    Ce1  Ce4+  1.0000  0.314750  0.611370  0.767110  Uiso  0.001267
    Ce1  Ce4+  1.0000  0.437700  0.707740  0.742560  Uiso  0.001267
    Ce1  Ce4+  1.0000  0.560650  0.804110  0.718010  Uiso  0.001267
    Ce1  Ce4+  1.0000  0.683600  0.900480  0.693470  Uiso  0.001267
    Ce1  Ce4+  1.0000  0.806550  0.996860  0.668920  Uiso  0.001267
    Ce1  Ce4+  1.0000  0.063930  0.171660  0.803930  Uiso  0.001267
    Ce1  Ce4+  1.0000  0.186880  0.268040  0.779380  Uiso  0.001267
    Ce1  Ce4+  1.0000  0.309830  0.364410  0.754840  Uiso  0.001267
    Ce1  Ce4+  1.0000  0.432780  0.460780  0.730290  Uiso  0.001267
    Ce1  Ce4+  1.0000  0.555740  0.557160  0.705740  Uiso  0.001267
    Ce1  Ce4+  1.0000  0.678690  0.653530  0.681190  Uiso  0.001267
    Ce1  Ce4+  1.0000  0.801640  0.749900  0.656650  Uiso  0.001267
    Ce1  Ce4+  1.0000  0.924590  0.846270  0.632100  Uiso  0.001267
    Ce1  Ce4+  1.0000  0.181970  0.021080  0.767110  Uiso  0.001267
    Ce1  Ce4+  1.0000  0.304920  0.117450  0.742560  Uiso  0.001267
    Ce1  Ce4+  1.0000  0.427870  0.213830  0.718010  Uiso  0.001267
    Ce1  Ce4+  1.0000  0.550820  0.310200  0.693470  Uiso  0.001267
    Ce1  Ce4+  1.0000  0.673770  0.406570  0.668920  Uiso  0.001267
    Ce1  Ce4+  1.0000  0.796720  0.502950  0.644370  Uiso  0.001267
    Ce1  Ce4+  1.0000  0.919670  0.599320  0.619820  Uiso  0.001267
    Ce1  Ce4+  1.0000  0.545900  0.063240  0.681190  Uiso  0.001267
    Ce1  Ce4+  1.0000  0.668850  0.159620  0.656650  Uiso  0.001267
    Ce1  Ce4+  1.0000  0.791800  0.255990  0.632100  Uiso  0.001267
    Ce1  Ce4+  1.0000  0.914750  0.352360  0.607550  Uiso  0.001267
    Ce1  Ce4+  1.0000  0.786880  0.009030  0.619820  Uiso  0.001267
    Ce1  Ce4+  1.0000  0.909830  0.105410  0.595280  Uiso  0.001267
    Ce1  Ce4+  1.0000  0.078690  0.912530  0.767110  Uiso  0.001267
    Ce1  Ce4+  1.0000  0.073770  0.665580  0.754840  Uiso  0.001267
    Ce1  Ce4+  1.0000  0.196720  0.761950  0.730290  Uiso  0.001267
    Ce1  Ce4+  1.0000  0.319670  0.858320  0.705740  Uiso  0.001267
    Ce1  Ce4+  1.0000  0.442620  0.954690  0.681190  Uiso  0.001267
    Ce1  Ce4+  1.0000  0.068850  0.418620  0.742560  Uiso  0.001267
    Ce1  Ce4+  1.0000  0.191800  0.514990  0.718010  Uiso  0.001267
    Ce1  Ce4+  1.0000  0.314750  0.611370  0.693470  Uiso  0.001267
    Ce1  Ce4+  1.0000  0.437700  0.707740  0.668920  Uiso  0.001267
    Ce1  Ce4+  1.0000  0.560650  0.804110  0.644370  Uiso  0.001267
    Ce1  Ce4+  1.0000  0.683600  0.900480  0.619820  Uiso  0.001267
    Ce1  Ce4+  1.0000  0.806550  0.996860  0.595280  Uiso  0.001267
    Ce1  Ce4+  1.0000  0.063930  0.171660  0.730290  Uiso  0.001267
    Ce1  Ce4+  1.0000  0.186880  0.268040  0.705740  Uiso  0.001267
    Ce1  Ce4+  1.0000  0.309830  0.364410  0.681190  Uiso  0.001267
    Ce1  Ce4+  1.0000  0.432780  0.460780  0.656650  Uiso  0.001267
    Ce1  Ce4+  1.0000  0.555740  0.557160  0.632100  Uiso  0.001267
    Ce1  Ce4+  1.0000  0.678690  0.653530  0.607550  Uiso  0.001267
    Ce1  Ce4+  1.0000  0.801640  0.749900  0.583000  Uiso  0.001267
    Ce1  Ce4+  1.0000  0.924590  0.846270  0.558460  Uiso  0.001267
    Ce1  Ce4+  1.0000  0.181970  0.021080  0.693470  Uiso  0.001267
    Ce1  Ce4+  1.0000  0.304920  0.117450  0.668920  Uiso  0.001267
    Ce1  Ce4+  1.0000  0.427870  0.213830  0.644370  Uiso  0.001267
    Ce1  Ce4+  1.0000  0.550820  0.310200  0.619820  Uiso  0.001267
    Ce1  Ce4+  1.0000  0.673770  0.406570  0.595280  Uiso  0.001267
    Ce1  Ce4+  1.0000  0.796720  0.502950  0.570730  Uiso  0.001267
    Ce1  Ce4+  1.0000  0.919670  0.599320  0.546180  Uiso  0.001267
    Ce1  Ce4+  1.0000  0.545900  0.063240  0.607550  Uiso  0.001267
    Ce1  Ce4+  1.0000  0.668850  0.159620  0.583000  Uiso  0.001267
    Ce1  Ce4+  1.0000  0.791800  0.255990  0.558460  Uiso  0.001267
    Ce1  Ce4+  1.0000  0.914750  0.352360  0.533910  Uiso  0.001267
    Ce1  Ce4+  1.0000  0.786880  0.009030  0.546180  Uiso  0.001267
    Ce1  Ce4+  1.0000  0.909830  0.105410  0.521630  Uiso  0.001267
    Ce1  Ce4+  1.0000  0.078690  0.912530  0.693470  Uiso  0.001267
    Ce1  Ce4+  1.0000  0.073770  0.665580  0.681190  Uiso  0.001267
    Ce1  Ce4+  1.0000  0.196720  0.761950  0.656650  Uiso  0.001267
    Ce1  Ce4+  1.0000  0.319670  0.858320  0.632100  Uiso  0.001267
    Ce1  Ce4+  1.0000  0.442620  0.954690  0.607550  Uiso  0.001267
    Ce1  Ce4+  1.0000  0.068850  0.418620  0.668920  Uiso  0.001267
    Ce1  Ce4+  1.0000  0.191800  0.514990  0.644370  Uiso  0.001267
    Ce1  Ce4+  1.0000  0.314750  0.611370  0.619820  Uiso  0.001267
    Ce1  Ce4+  1.0000  0.437700  0.707740  0.595280  Uiso  0.001267
    Ce1  Ce4+  1.0000  0.560650  0.804110  0.570730  Uiso  0.001267
    Ce1  Ce4+  1.0000  0.683600  0.900480  0.546180  Uiso  0.001267
    Ce1  Ce4+  1.0000  0.806550  0.996860  0.521630  Uiso  0.001267
    Ce1  Ce4+  1.0000  0.063930  0.171660  0.656650  Uiso  0.001267
    Ce1  Ce4+  1.0000  0.186880  0.268040  0.632100  Uiso  0.001267
    Ce1  Ce4+  1.0000  0.309830  0.364410  0.607550  Uiso  0.001267
    Ce1  Ce4+  1.0000  0.432780  0.460780  0.583000  Uiso  0.001267
    Ce1  Ce4+  1.0000  0.555740  0.557160  0.558460  Uiso  0.001267
    Ce1  Ce4+  1.0000  0.678690  0.653530  0.533910  Uiso  0.001267
    Ce1  Ce4+  1.0000  0.801640  0.749900  0.509360  Uiso  0.001267
    Ce1  Ce4+  1.0000  0.924590  0.846270  0.484810  Uiso  0.001267
    Ce1  Ce4+  1.0000  0.181970  0.021080  0.619820  Uiso  0.001267
    Ce1  Ce4+  1.0000  0.304920  0.117450  0.595280  Uiso  0.001267
    Ce1  Ce4+  1.0000  0.427870  0.213830  0.570730  Uiso  0.001267
    Ce1  Ce4+  1.0000  0.550820  0.310200  0.546180  Uiso  0.001267
    Ce1  Ce4+  1.0000  0.673770  0.406570  0.521630  Uiso  0.001267
    Ce1  Ce4+  1.0000  0.796720  0.502950  0.497090  Uiso  0.001267
    Ce1  Ce4+  1.0000  0.919670  0.599320  0.472540  Uiso  0.001267
    Ce1  Ce4+  1.0000  0.545900  0.063240  0.533910  Uiso  0.001267
    Ce1  Ce4+  1.0000  0.668850  0.159620  0.509360  Uiso  0.001267
    Ce1  Ce4+  1.0000  0.791800  0.255990  0.484810  Uiso  0.001267
    Ce1  Ce4+  1.0000  0.914750  0.352360  0.460270  Uiso  0.001267
    Ce1  Ce4+  1.0000  0.786880  0.009030  0.472540  Uiso  0.001267
    Ce1  Ce4+  1.0000  0.909830  0.105410  0.447990  Uiso  0.001267
    Ce1  Ce4+  1.0000  0.078690  0.912530  0.619820  Uiso  0.001267
    Ce1  Ce4+  1.0000  0.073770  0.665580  0.607550  Uiso  0.001267
    Ce1  Ce4+  1.0000  0.196720  0.761950  0.583000  Uiso  0.001267
    Ce1  Ce4+  1.0000  0.319670  0.858320  0.558460  Uiso  0.001267
    Ce1  Ce4+  1.0000  0.442620  0.954690  0.533910  Uiso  0.001267
    Ce1  Ce4+  1.0000  0.068850  0.418620  0.595280  Uiso  0.001267
    Ce1  Ce4+  1.0000  0.191800  0.514990  0.570730  Uiso  0.001267
    Ce1  Ce4+  1.0000  0.314750  0.611370  0.546180  Uiso  0.001267
    Ce1  Ce4+  1.0000  0.437700  0.707740  0.521630  Uiso  0.001267
    Ce1  Ce4+  1.0000  0.560650  0.804110  0.497090  Uiso  0.001267
    Ce1  Ce4+  1.0000  0.683600  0.900480  0.472540  Uiso  0.001267
    Ce1  Ce4+  1.0000  0.806550  0.996860  0.447990  Uiso  0.001267
    Ce1  Ce4+  1.0000  0.063930  0.171660  0.583000  Uiso  0.001267
    Ce1  Ce4+  1.0000  0.186880  0.268040  0.558460  Uiso  0.001267
    Ce1  Ce4+  1.0000  0.309830  0.364410  0.533910  Uiso  0.001267
    Ce1  Ce4+  1.0000  0.432780  0.460780  0.509360  Uiso  0.001267
    Ce1  Ce4+  1.0000  0.555740  0.557160  0.484810  Uiso  0.001267
    Ce1  Ce4+  1.0000  0.678690  0.653530  0.460270  Uiso  0.001267
    Ce1  Ce4+  1.0000  0.801640  0.749900  0.435720  Uiso  0.001267
    Ce1  Ce4+  1.0000  0.924590  0.846270  0.411170  Uiso  0.001267
    Ce1  Ce4+  1.0000  0.181970  0.021080  0.546180  Uiso  0.001267
    Ce1  Ce4+  1.0000  0.304920  0.117450  0.521630  Uiso  0.001267
    Ce1  Ce4+  1.0000  0.427870  0.213830  0.497090  Uiso  0.001267
    Ce1  Ce4+  1.0000  0.550820  0.310200  0.472540  Uiso  0.001267
    Ce1  Ce4+  1.0000  0.673770  0.406570  0.447990  Uiso  0.001267
    Ce1  Ce4+  1.0000  0.796720  0.502950  0.423440  Uiso  0.001267
    Ce1  Ce4+  1.0000  0.919670  0.599320  0.398900  Uiso  0.001267
    Ce1  Ce4+  1.0000  0.545900  0.063240  0.460270  Uiso  0.001267
    Ce1  Ce4+  1.0000  0.668850  0.159620  0.435720  Uiso  0.001267
    Ce1  Ce4+  1.0000  0.791800  0.255990  0.411170  Uiso  0.001267
    Ce1  Ce4+  1.0000  0.914750  0.352360  0.386620  Uiso  0.001267
    Ce1  Ce4+  1.0000  0.786880  0.009030  0.398900  Uiso  0.001267
    Ce1  Ce4+  1.0000  0.909830  0.105410  0.374350  Uiso  0.001267
    Ce1  Ce4+  1.0000  0.078690  0.912530  0.546180  Uiso  0.001267
    Ce1  Ce4+  1.0000  0.073770  0.665580  0.533910  Uiso  0.001267
    Ce1  Ce4+  1.0000  0.196720  0.761950  0.509360  Uiso  0.001267
    Ce1  Ce4+  1.0000  0.319670  0.858320  0.484810  Uiso  0.001267
    Ce1  Ce4+  1.0000  0.442620  0.954690  0.460270  Uiso  0.001267
    Ce1  Ce4+  1.0000  0.068850  0.418620  0.521630  Uiso  0.001267
    Ce1  Ce4+  1.0000  0.191800  0.514990  0.497090  Uiso  0.001267
    Ce1  Ce4+  1.0000  0.314750  0.611370  0.472540  Uiso  0.001267
    Ce1  Ce4+  1.0000  0.437700  0.707740  0.447990  Uiso  0.001267
    Ce1  Ce4+  1.0000  0.560650  0.804110  0.423440  Uiso  0.001267
    Ce1  Ce4+  1.0000  0.683600  0.900480  0.398900  Uiso  0.001267
    Ce1  Ce4+  1.0000  0.806550  0.996860  0.374350  Uiso  0.001267
    Ce1  Ce4+  1.0000  0.063930  0.171660  0.509360  Uiso  0.001267
    Ce1  Ce4+  1.0000  0.186880  0.268040  0.484810  Uiso  0.001267
    Ce1  Ce4+  1.0000  0.309830  0.364410  0.460270  Uiso  0.001267
    Ce1  Ce4+  1.0000  0.432780  0.460780  0.435720  Uiso  0.001267
    Ce1  Ce4+  1.0000  0.555740  0.557160  0.411170  Uiso  0.001267
    Ce1  Ce4+  1.0000  0.678690  0.653530  0.386620  Uiso  0.001267
    Ce1  Ce4+  1.0000  0.801640  0.749900  0.362080  Uiso  0.001267
    Ce1  Ce4+  1.0000  0.924590  0.846270  0.337530  Uiso  0.001267
    Ce1  Ce4+  1.0000  0.181970  0.021080  0.472540  Uiso  0.001267
    Ce1  Ce4+  1.0000  0.304920  0.117450  0.447990  Uiso  0.001267
    Ce1  Ce4+  1.0000  0.427870  0.213830  0.423440  Uiso  0.001267
    Ce1  Ce4+  1.0000  0.550820  0.310200  0.398900  Uiso  0.001267
    Ce1  Ce4+  1.0000  0.673770  0.406570  0.374350  Uiso  0.001267
    Ce1  Ce4+  1.0000  0.796720  0.502950  0.349800  Uiso  0.001267
    Ce1  Ce4+  1.0000  0.919670  0.599320  0.325250  Uiso  0.001267
    Ce1  Ce4+  1.0000  0.545900  0.063240  0.386620  Uiso  0.001267
    Ce1  Ce4+  1.0000  0.668850  0.159620  0.362080  Uiso  0.001267
    Ce1  Ce4+  1.0000  0.791800  0.255990  0.337530  Uiso  0.001267
    Ce1  Ce4+  1.0000  0.914750  0.352360  0.312980  Uiso  0.001267
    Ce1  Ce4+  1.0000  0.786880  0.009030  0.325250  Uiso  0.001267
    Ce1  Ce4+  1.0000  0.909830  0.105410  0.300710  Uiso  0.001267
    Ce1  Ce4+  1.0000  0.078690  0.912530  0.472540  Uiso  0.001267
    Ce1  Ce4+  1.0000  0.073770  0.665580  0.460270  Uiso  0.001267
    Ce1  Ce4+  1.0000  0.196720  0.761950  0.435720  Uiso  0.001267
    Ce1  Ce4+  1.0000  0.319670  0.858320  0.411170  Uiso  0.001267
    Ce1  Ce4+  1.0000  0.442620  0.954690  0.386620  Uiso  0.001267
    Ce1  Ce4+  1.0000  0.068850  0.418620  0.447990  Uiso  0.001267
    Ce1  Ce4+  1.0000  0.191800  0.514990  0.423440  Uiso  0.001267
    Ce1  Ce4+  1.0000  0.314750  0.611370  0.398900  Uiso  0.001267
    Ce1  Ce4+  1.0000  0.437700  0.707740  0.374350  Uiso  0.001267
    Ce1  Ce4+  1.0000  0.560650  0.804110  0.349800  Uiso  0.001267
    Ce1  Ce4+  1.0000  0.683600  0.900480  0.325250  Uiso  0.001267
    Ce1  Ce4+  1.0000  0.806550  0.996860  0.300710  Uiso  0.001267
    Ce1  Ce4+  1.0000  0.063930  0.171660  0.435720  Uiso  0.001267
    Ce1  Ce4+  1.0000  0.186880  0.268040  0.411170  Uiso  0.001267
    Ce1  Ce4+  1.0000  0.309830  0.364410  0.386620  Uiso  0.001267
    Ce1  Ce4+  1.0000  0.432780  0.460780  0.362080  Uiso  0.001267
    Ce1  Ce4+  1.0000  0.555740  0.557160  0.337530  Uiso  0.001267
    Ce1  Ce4+  1.0000  0.678690  0.653530  0.312980  Uiso  0.001267
    Ce1  Ce4+  1.0000  0.801640  0.749900  0.288430  Uiso  0.001267
    Ce1  Ce4+  1.0000  0.924590  0.846270  0.263890  Uiso  0.001267
    Ce1  Ce4+  1.0000  0.181970  0.021080  0.398900  Uiso  0.001267
    Ce1  Ce4+  1.0000  0.304920  0.117450  0.374350  Uiso  0.001267
    Ce1  Ce4+  1.0000  0.427870  0.213830  0.349800  Uiso  0.001267
    Ce1  Ce4+  1.0000  0.550820  0.310200  0.325250  Uiso  0.001267
    Ce1  Ce4+  1.0000  0.673770  0.406570  0.300710  Uiso  0.001267
    Ce1  Ce4+  1.0000  0.796720  0.502950  0.276160  Uiso  0.001267
    Ce1  Ce4+  1.0000  0.919670  0.599320  0.251610  Uiso  0.001267
    Ce1  Ce4+  1.0000  0.545900  0.063240  0.312980  Uiso  0.001267
    Ce1  Ce4+  1.0000  0.668850  0.159620  0.288430  Uiso  0.001267
    Ce1  Ce4+  1.0000  0.791800  0.255990  0.263890  Uiso  0.001267
    Ce1  Ce4+  1.0000  0.914750  0.352360  0.239340  Uiso  0.001267
    Ce1  Ce4+  1.0000  0.786880  0.009030  0.251610  Uiso  0.001267
    Ce1  Ce4+  1.0000  0.909830  0.105410  0.227060  Uiso  0.001267
    Ce1  Ce4+  1.0000  0.078690  0.912530  0.398900  Uiso  0.001267
    Ce1  Ce4+  1.0000  0.073770  0.665580  0.386620  Uiso  0.001267
    Ce1  Ce4+  1.0000  0.196720  0.761950  0.362080  Uiso  0.001267
    Ce1  Ce4+  1.0000  0.319670  0.858320  0.337530  Uiso  0.001267
    Ce1  Ce4+  1.0000  0.442620  0.954690  0.312980  Uiso  0.001267
    Ce1  Ce4+  1.0000  0.068850  0.418620  0.374350  Uiso  0.001267
    Ce1  Ce4+  1.0000  0.191800  0.514990  0.349800  Uiso  0.001267
    Ce1  Ce4+  1.0000  0.314750  0.611370  0.325250  Uiso  0.001267
    Ce1  Ce4+  1.0000  0.437700  0.707740  0.300710  Uiso  0.001267
    Ce1  Ce4+  1.0000  0.560650  0.804110  0.276160  Uiso  0.001267
    Ce1  Ce4+  1.0000  0.683600  0.900480  0.251610  Uiso  0.001267
    Ce1  Ce4+  1.0000  0.806550  0.996860  0.227060  Uiso  0.001267
    Ce1  Ce4+  1.0000  0.063930  0.171660  0.362080  Uiso  0.001267
    Ce1  Ce4+  1.0000  0.186880  0.268040  0.337530  Uiso  0.001267
    Ce1  Ce4+  1.0000  0.309830  0.364410  0.312980  Uiso  0.001267
    Ce1  Ce4+  1.0000  0.432780  0.460780  0.288430  Uiso  0.001267
    Ce1  Ce4+  1.0000  0.555740  0.557160  0.263890  Uiso  0.001267
    Ce1  Ce4+  1.0000  0.678690  0.653530  0.239340  Uiso  0.001267
    Ce1  Ce4+  1.0000  0.801640  0.749900  0.214790  Uiso  0.001267
    Ce1  Ce4+  1.0000  0.924590  0.846270  0.190240  Uiso  0.001267
    Ce1  Ce4+  1.0000  0.181970  0.021080  0.325250  Uiso  0.001267
    Ce1  Ce4+  1.0000  0.304920  0.117450  0.300710  Uiso  0.001267
    Ce1  Ce4+  1.0000  0.427870  0.213830  0.276160  Uiso  0.001267
    Ce1  Ce4+  1.0000  0.550820  0.310200  0.251610  Uiso  0.001267
    Ce1  Ce4+  1.0000  0.673770  0.406570  0.227060  Uiso  0.001267
    Ce1  Ce4+  1.0000  0.796720  0.502950  0.202520  Uiso  0.001267
    Ce1  Ce4+  1.0000  0.919670  0.599320  0.177970  Uiso  0.001267
    Ce1  Ce4+  1.0000  0.545900  0.063240  0.239340  Uiso  0.001267
    Ce1  Ce4+  1.0000  0.668850  0.159620  0.214790  Uiso  0.001267
    Ce1  Ce4+  1.0000  0.791800  0.255990  0.190240  Uiso  0.001267
    Ce1  Ce4+  1.0000  0.914750  0.352360  0.165700  Uiso  0.001267
    Ce1  Ce4+  1.0000  0.786880  0.009030  0.177970  Uiso  0.001267
    Ce1  Ce4+  1.0000  0.909830  0.105410  0.153420  Uiso  0.001267
    Ce1  Ce4+  1.0000  0.078690  0.912530  0.325250  Uiso  0.001267
    Ce1  Ce4+  1.0000  0.073770  0.665580  0.312980  Uiso  0.001267
    Ce1  Ce4+  1.0000  0.196720  0.761950  0.288430  Uiso  0.001267
    Ce1  Ce4+  1.0000  0.319670  0.858320  0.263890  Uiso  0.001267
    Ce1  Ce4+  1.0000  0.442620  0.954690  0.239340  Uiso  0.001267
    Ce1  Ce4+  1.0000  0.068850  0.418620  0.300710  Uiso  0.001267
    Ce1  Ce4+  1.0000  0.191800  0.514990  0.276160  Uiso  0.001267
    Ce1  Ce4+  1.0000  0.314750  0.611370  0.251610  Uiso  0.001267
    Ce1  Ce4+  1.0000  0.437700  0.707740  0.227060  Uiso  0.001267
    Ce1  Ce4+  1.0000  0.560650  0.804110  0.202520  Uiso  0.001267
    Ce1  Ce4+  1.0000  0.683600  0.900480  0.177970  Uiso  0.001267
    Ce1  Ce4+  1.0000  0.806550  0.996860  0.153420  Uiso  0.001267
    Ce1  Ce4+  1.0000  0.063930  0.171660  0.288430  Uiso  0.001267
    Ce1  Ce4+  1.0000  0.186880  0.268040  0.263890  Uiso  0.001267
    Ce1  Ce4+  1.0000  0.309830  0.364410  0.239340  Uiso  0.001267
    Ce1  Ce4+  1.0000  0.432780  0.460780  0.214790  Uiso  0.001267
    Ce1  Ce4+  1.0000  0.555740  0.557160  0.190240  Uiso  0.001267
    Ce1  Ce4+  1.0000  0.678690  0.653530  0.165700  Uiso  0.001267
    Ce1  Ce4+  1.0000  0.801640  0.749900  0.141150  Uiso  0.001267
    Ce1  Ce4+  1.0000  0.924590  0.846270  0.116600  Uiso  0.001267
    Ce1  Ce4+  1.0000  0.181970  0.021080  0.251610  Uiso  0.001267
    Ce1  Ce4+  1.0000  0.304920  0.117450  0.227060  Uiso  0.001267
    Ce1  Ce4+  1.0000  0.427870  0.213830  0.202520  Uiso  0.001267
    Ce1  Ce4+  1.0000  0.550820  0.310200  0.177970  Uiso  0.001267
    Ce1  Ce4+  1.0000  0.673770  0.406570  0.153420  Uiso  0.001267
    Ce1  Ce4+  1.0000  0.796720  0.502950  0.128870  Uiso  0.001267
    Ce1  Ce4+  1.0000  0.919670  0.599320  0.104330  Uiso  0.001267
    Ce1  Ce4+  1.0000  0.545900  0.063240  0.165700  Uiso  0.001267
    Ce1  Ce4+  1.0000  0.668850  0.159620  0.141150  Uiso  0.001267
    Ce1  Ce4+  1.0000  0.791800  0.255990  0.116600  Uiso  0.001267
    Ce1  Ce4+  1.0000  0.914750  0.352360  0.092050  Uiso  0.001267
    Ce1  Ce4+  1.0000  0.786880  0.009030  0.104330  Uiso  0.001267
    Ce1  Ce4+  1.0000  0.909830  0.105410  0.079780  Uiso  0.001267
    Ce1  Ce4+  1.0000  0.078690  0.912530  0.251610  Uiso  0.001267
    Ce1  Ce4+  1.0000  0.073770  0.665580  0.239340  Uiso  0.001267
    Ce1  Ce4+  1.0000  0.196720  0.761950  0.214790  Uiso  0.001267
    Ce1  Ce4+  1.0000  0.319670  0.858320  0.190240  Uiso  0.001267
    Ce1  Ce4+  1.0000  0.442620  0.954690  0.165700  Uiso  0.001267
    Ce1  Ce4+  1.0000  0.068850  0.418620  0.227060  Uiso  0.001267
    Ce1  Ce4+  1.0000  0.191800  0.514990  0.202520  Uiso  0.001267
    Ce1  Ce4+  1.0000  0.314750  0.611370  0.177970  Uiso  0.001267
    Ce1  Ce4+  1.0000  0.437700  0.707740  0.153420  Uiso  0.001267
    Ce1  Ce4+  1.0000  0.560650  0.804110  0.128870  Uiso  0.001267
    Ce1  Ce4+  1.0000  0.683600  0.900480  0.104330  Uiso  0.001267
    Ce1  Ce4+  1.0000  0.806550  0.996860  0.079780  Uiso  0.001267
    Ce1  Ce4+  1.0000  0.063930  0.171660  0.214790  Uiso  0.001267
    Ce1  Ce4+  1.0000  0.186880  0.268040  0.190240  Uiso  0.001267
    Ce1  Ce4+  1.0000  0.309830  0.364410  0.165700  Uiso  0.001267
    Ce1  Ce4+  1.0000  0.432780  0.460780  0.141150  Uiso  0.001267
    Ce1  Ce4+  1.0000  0.555740  0.557160  0.116600  Uiso  0.001267
    Ce1  Ce4+  1.0000  0.678690  0.653530  0.092050  Uiso  0.001267
    Ce1  Ce4+  1.0000  0.801640  0.749900  0.067510  Uiso  0.001267
    Ce1  Ce4+  1.0000  0.924590  0.846270  0.042960  Uiso  0.001267
    Ce1  Ce4+  1.0000  0.181970  0.021080  0.177970  Uiso  0.001267
    Ce1  Ce4+  1.0000  0.304920  0.117450  0.153420  Uiso  0.001267
    Ce1  Ce4+  1.0000  0.427870  0.213830  0.128870  Uiso  0.001267
    Ce1  Ce4+  1.0000  0.550820  0.310200  0.104330  Uiso  0.001267
    Ce1  Ce4+  1.0000  0.673770  0.406570  0.079780  Uiso  0.001267
    Ce1  Ce4+  1.0000  0.796720  0.502950  0.055230  Uiso  0.001267
    Ce1  Ce4+  1.0000  0.919670  0.599320  0.030680  Uiso  0.001267
    Ce1  Ce4+  1.0000  0.545900  0.063240  0.092050  Uiso  0.001267
    Ce1  Ce4+  1.0000  0.668850  0.159620  0.067510  Uiso  0.001267
    Ce1  Ce4+  1.0000  0.791800  0.255990  0.042960  Uiso  0.001267
    Ce1  Ce4+  1.0000  0.914750  0.352360  0.018410  Uiso  0.001267
    Ce1  Ce4+  1.0000  0.786880  0.009030  0.030680  Uiso  0.001267
    Ce1  Ce4+  1.0000  0.909830  0.105410  0.006140  Uiso  0.001267
    Ce1  Ce4+  1.0000  0.078690  0.912530  0.177970  Uiso  0.001267
    Ce1  Ce4+  1.0000  0.073770  0.665580  0.165700  Uiso  0.001267
    Ce1  Ce4+  1.0000  0.196720  0.761950  0.141150  Uiso  0.001267
    Ce1  Ce4+  1.0000  0.319670  0.858320  0.116600  Uiso  0.001267
    Ce1  Ce4+  1.0000  0.442620  0.954690  0.092050  Uiso  0.001267
    Ce1  Ce4+  1.0000  0.068850  0.418620  0.153420  Uiso  0.001267
    Ce1  Ce4+  1.0000  0.191800  0.514990  0.128870  Uiso  0.001267
    Ce1  Ce4+  1.0000  0.314750  0.611370  0.104330  Uiso  0.001267
    Ce1  Ce4+  1.0000  0.437700  0.707740  0.079780  Uiso  0.001267
    Ce1  Ce4+  1.0000  0.560650  0.804110  0.055230  Uiso  0.001267
    Ce1  Ce4+  1.0000  0.683600  0.900480  0.030680  Uiso  0.001267
    Ce1  Ce4+  1.0000  0.806550  0.996860  0.006140  Uiso  0.001267
    Ce1  Ce4+  1.0000  0.063930  0.171660  0.141150  Uiso  0.001267
    Ce1  Ce4+  1.0000  0.186880  0.268040  0.116600  Uiso  0.001267
    Ce1  Ce4+  1.0000  0.309830  0.364410  0.092050  Uiso  0.001267
    Ce1  Ce4+  1.0000  0.432780  0.460780  0.067510  Uiso  0.001267
    Ce1  Ce4+  1.0000  0.555740  0.557160  0.042960  Uiso  0.001267
    Ce1  Ce4+  1.0000  0.678690  0.653530  0.018410  Uiso  0.001267
    Ce1  Ce4+  1.0000  0.181970  0.021080  0.104330  Uiso  0.001267
    Ce1  Ce4+  1.0000  0.304920  0.117450  0.079780  Uiso  0.001267
    Ce1  Ce4+  1.0000  0.427870  0.213830  0.055230  Uiso  0.001267
    Ce1  Ce4+  1.0000  0.550820  0.310200  0.030680  Uiso  0.001267
    Ce1  Ce4+  1.0000  0.673770  0.406570  0.006140  Uiso  0.001267
    Ce1  Ce4+  1.0000  0.545900  0.063240  0.018410  Uiso  0.001267
    Ce1  Ce4+  1.0000  0.078690  0.912530  0.104330  Uiso  0.001267
    Ce1  Ce4+  1.0000  0.073770  0.665580  0.092050  Uiso  0.001267
    Ce1  Ce4+  1.0000  0.196720  0.761950  0.067510  Uiso  0.001267
    Ce1  Ce4+  1.0000  0.319670  0.858320  0.042960  Uiso  0.001267
    Ce1  Ce4+  1.0000  0.442620  0.954690  0.018410  Uiso  0.001267
    Ce1  Ce4+  1.0000  0.068850  0.418620  0.079780  Uiso  0.001267
    Ce1  Ce4+  1.0000  0.191800  0.514990  0.055230  Uiso  0.001267
    Ce1  Ce4+  1.0000  0.314750  0.611370  0.030680  Uiso  0.001267
    Ce1  Ce4+  1.0000  0.437700  0.707740  0.006140  Uiso  0.001267
    Ce1  Ce4+  1.0000  0.063930  0.171660  0.067510  Uiso  0.001267
    Ce1  Ce4+  1.0000  0.186880  0.268040  0.042960  Uiso  0.001267
    Ce1  Ce4+  1.0000  0.309830  0.364410  0.018410  Uiso  0.001267
    Ce1  Ce4+  1.0000  0.181970  0.021080  0.030680  Uiso  0.001267
    Ce1  Ce4+  1.0000  0.304920  0.117450  0.006140  Uiso  0.001267
    Ce1  Ce4+  1.0000  0.078690  0.912530  0.030680  Uiso  0.001267
    Ce1  Ce4+  1.0000  0.073770  0.665580  0.018410  Uiso  0.001267
    Ce1  Ce4+  1.0000  0.068850  0.418620  0.006140  Uiso  0.001267
    Ce1  Ce4+  1.0000  0.801640  0.749900  0.988040  Uiso  0.001267
    Ce1  Ce4+  1.0000  0.924590  0.846270  0.963490  Uiso  0.001267
    Ce1  Ce4+  1.0000  0.796720  0.502950  0.975760  Uiso  0.001267
    Ce1  Ce4+  1.0000  0.919670  0.599320  0.951220  Uiso  0.001267
    Ce1  Ce4+  1.0000  0.668850  0.159620  0.988040  Uiso  0.001267
    Ce1  Ce4+  1.0000  0.791800  0.255990  0.963490  Uiso  0.001267
    Ce1  Ce4+  1.0000  0.914750  0.352360  0.938940  Uiso  0.001267
    Ce1  Ce4+  1.0000  0.786880  0.009030  0.951220  Uiso  0.001267
    Ce1  Ce4+  1.0000  0.909830  0.105410  0.926670  Uiso  0.001267
    Ce1  Ce4+  1.0000  0.560650  0.804110  0.975760  Uiso  0.001267
    Ce1  Ce4+  1.0000  0.683600  0.900480  0.951220  Uiso  0.001267
    Ce1  Ce4+  1.0000  0.806550  0.996860  0.926670  Uiso  0.001267
    Ce1  Ce4+  1.0000  0.432780  0.460780  0.988040  Uiso  0.001267
    Ce1  Ce4+  1.0000  0.555740  0.557160  0.963490  Uiso  0.001267
    Ce1  Ce4+  1.0000  0.678690  0.653530  0.938940  Uiso  0.001267
    Ce1  Ce4+  1.0000  0.801640  0.749900  0.914400  Uiso  0.001267
    Ce1  Ce4+  1.0000  0.924590  0.846270  0.889850  Uiso  0.001267
    Ce1  Ce4+  1.0000  0.427870  0.213830  0.975760  Uiso  0.001267
    Ce1  Ce4+  1.0000  0.550820  0.310200  0.951220  Uiso  0.001267
    Ce1  Ce4+  1.0000  0.673770  0.406570  0.926670  Uiso  0.001267
    Ce1  Ce4+  1.0000  0.796720  0.502950  0.902120  Uiso  0.001267
    Ce1  Ce4+  1.0000  0.919670  0.599320  0.877570  Uiso  0.001267
    Ce1  Ce4+  1.0000  0.545900  0.063240  0.938940  Uiso  0.001267
    Ce1  Ce4+  1.0000  0.668850  0.159620  0.914400  Uiso  0.001267
    Ce1  Ce4+  1.0000  0.791800  0.255990  0.889850  Uiso  0.001267
    Ce1  Ce4+  1.0000  0.914750  0.352360  0.865300  Uiso  0.001267
    Ce1  Ce4+  1.0000  0.786880  0.009030  0.877570  Uiso  0.001267
    Ce1  Ce4+  1.0000  0.909830  0.105410  0.853030  Uiso  0.001267
    Ce1  Ce4+  1.0000  0.196720  0.761950  0.988040  Uiso  0.001267
    Ce1  Ce4+  1.0000  0.319670  0.858320  0.963490  Uiso  0.001267
    Ce1  Ce4+  1.0000  0.442620  0.954690  0.938940  Uiso  0.001267
    Ce1  Ce4+  1.0000  0.191800  0.514990  0.975760  Uiso  0.001267
    Ce1  Ce4+  1.0000  0.314750  0.611370  0.951220  Uiso  0.001267
    Ce1  Ce4+  1.0000  0.437700  0.707740  0.926670  Uiso  0.001267
    Ce1  Ce4+  1.0000  0.560650  0.804110  0.902120  Uiso  0.001267
    Ce1  Ce4+  1.0000  0.683600  0.900480  0.877570  Uiso  0.001267
    Ce1  Ce4+  1.0000  0.806550  0.996860  0.853030  Uiso  0.001267
    Ce1  Ce4+  1.0000  0.063930  0.171660  0.988040  Uiso  0.001267
    Ce1  Ce4+  1.0000  0.186880  0.268040  0.963490  Uiso  0.001267
    Ce1  Ce4+  1.0000  0.309830  0.364410  0.938940  Uiso  0.001267
    Ce1  Ce4+  1.0000  0.432780  0.460780  0.914400  Uiso  0.001267
    Ce1  Ce4+  1.0000  0.555740  0.557160  0.889850  Uiso  0.001267
    Ce1  Ce4+  1.0000  0.678690  0.653530  0.865300  Uiso  0.001267
    Ce1  Ce4+  1.0000  0.801640  0.749900  0.840750  Uiso  0.001267
    Ce1  Ce4+  1.0000  0.924590  0.846270  0.816200  Uiso  0.001267
    Ce1  Ce4+  1.0000  0.181970  0.021080  0.951220  Uiso  0.001267
    Ce1  Ce4+  1.0000  0.304920  0.117450  0.926670  Uiso  0.001267
    Ce1  Ce4+  1.0000  0.427870  0.213830  0.902120  Uiso  0.001267
    Ce1  Ce4+  1.0000  0.550820  0.310200  0.877570  Uiso  0.001267
    Ce1  Ce4+  1.0000  0.673770  0.406570  0.853030  Uiso  0.001267
    Ce1  Ce4+  1.0000  0.796720  0.502950  0.828480  Uiso  0.001267
    Ce1  Ce4+  1.0000  0.919670  0.599320  0.803930  Uiso  0.001267
    Ce1  Ce4+  1.0000  0.545900  0.063240  0.865300  Uiso  0.001267
    Ce1  Ce4+  1.0000  0.668850  0.159620  0.840750  Uiso  0.001267
    Ce1  Ce4+  1.0000  0.791800  0.255990  0.816200  Uiso  0.001267
    Ce1  Ce4+  1.0000  0.914750  0.352360  0.791660  Uiso  0.001267
    Ce1  Ce4+  1.0000  0.786880  0.009030  0.803930  Uiso  0.001267
    Ce1  Ce4+  1.0000  0.909830  0.105410  0.779380  Uiso  0.001267
    Ce1  Ce4+  1.0000  0.078690  0.912530  0.951220  Uiso  0.001267
    Ce1  Ce4+  1.0000  0.073770  0.665580  0.938940  Uiso  0.001267
    Ce1  Ce4+  1.0000  0.196720  0.761950  0.914400  Uiso  0.001267
    Ce1  Ce4+  1.0000  0.319670  0.858320  0.889850  Uiso  0.001267
    Ce1  Ce4+  1.0000  0.442620  0.954690  0.865300  Uiso  0.001267
    Ce1  Ce4+  1.0000  0.068850  0.418620  0.926670  Uiso  0.001267
    Ce1  Ce4+  1.0000  0.191800  0.514990  0.902120  Uiso  0.001267
    Ce1  Ce4+  1.0000  0.314750  0.611370  0.877570  Uiso  0.001267
    Ce1  Ce4+  1.0000  0.437700  0.707740  0.853030  Uiso  0.001267
    Ce1  Ce4+  1.0000  0.560650  0.804110  0.828480  Uiso  0.001267
    Ce1  Ce4+  1.0000  0.683600  0.900480  0.803930  Uiso  0.001267
    Ce1  Ce4+  1.0000  0.806550  0.996860  0.779380  Uiso  0.001267
    Ce1  Ce4+  1.0000  0.063930  0.171660  0.914400  Uiso  0.001267
    Ce1  Ce4+  1.0000  0.186880  0.268040  0.889850  Uiso  0.001267
    Ce1  Ce4+  1.0000  0.309830  0.364410  0.865300  Uiso  0.001267
    Ce1  Ce4+  1.0000  0.432780  0.460780  0.840750  Uiso  0.001267
    Ce1  Ce4+  1.0000  0.555740  0.557160  0.816200  Uiso  0.001267
    Ce1  Ce4+  1.0000  0.678690  0.653530  0.791660  Uiso  0.001267
    Ce1  Ce4+  1.0000  0.801640  0.749900  0.767110  Uiso  0.001267
    Ce1  Ce4+  1.0000  0.924590  0.846270  0.742560  Uiso  0.001267
    Ce1  Ce4+  1.0000  0.181970  0.021080  0.877570  Uiso  0.001267
    Ce1  Ce4+  1.0000  0.304920  0.117450  0.853030  Uiso  0.001267
    Ce1  Ce4+  1.0000  0.427870  0.213830  0.828480  Uiso  0.001267
    Ce1  Ce4+  1.0000  0.550820  0.310200  0.803930  Uiso  0.001267
    Ce1  Ce4+  1.0000  0.673770  0.406570  0.779380  Uiso  0.001267
    Ce1  Ce4+  1.0000  0.796720  0.502950  0.754840  Uiso  0.001267
    Ce1  Ce4+  1.0000  0.919670  0.599320  0.730290  Uiso  0.001267
    Ce1  Ce4+  1.0000  0.545900  0.063240  0.791660  Uiso  0.001267
    Ce1  Ce4+  1.0000  0.668850  0.159620  0.767110  Uiso  0.001267
    Ce1  Ce4+  1.0000  0.791800  0.255990  0.742560  Uiso  0.001267
    Ce1  Ce4+  1.0000  0.914750  0.352360  0.718010  Uiso  0.001267
    Ce1  Ce4+  1.0000  0.786880  0.009030  0.730290  Uiso  0.001267
    Ce1  Ce4+  1.0000  0.909830  0.105410  0.705740  Uiso  0.001267
    Ce1  Ce4+  1.0000  0.078690  0.912530  0.877570  Uiso  0.001267
    Ce1  Ce4+  1.0000  0.073770  0.665580  0.865300  Uiso  0.001267
    Ce1  Ce4+  1.0000  0.196720  0.761950  0.840750  Uiso  0.001267
    Ce1  Ce4+  1.0000  0.319670  0.858320  0.816200  Uiso  0.001267
    Ce1  Ce4+  1.0000  0.442620  0.954690  0.791660  Uiso  0.001267
    Ce1  Ce4+  1.0000  0.068850  0.418620  0.853030  Uiso  0.001267
    Ce1  Ce4+  1.0000  0.191800  0.514990  0.828480  Uiso  0.001267
    Ce1  Ce4+  1.0000  0.314750  0.611370  0.803930  Uiso  0.001267
    Ce1  Ce4+  1.0000  0.437700  0.707740  0.779380  Uiso  0.001267
    Ce1  Ce4+  1.0000  0.560650  0.804110  0.754840  Uiso  0.001267
    Ce1  Ce4+  1.0000  0.683600  0.900480  0.730290  Uiso  0.001267
    Ce1  Ce4+  1.0000  0.806550  0.996860  0.705740  Uiso  0.001267
    Ce1  Ce4+  1.0000  0.063930  0.171660  0.840750  Uiso  0.001267
    Ce1  Ce4+  1.0000  0.186880  0.268040  0.816200  Uiso  0.001267
    Ce1  Ce4+  1.0000  0.309830  0.364410  0.791660  Uiso  0.001267
    Ce1  Ce4+  1.0000  0.432780  0.460780  0.767110  Uiso  0.001267
    Ce1  Ce4+  1.0000  0.555740  0.557160  0.742560  Uiso  0.001267
    Ce1  Ce4+  1.0000  0.678690  0.653530  0.718010  Uiso  0.001267
    Ce1  Ce4+  1.0000  0.801640  0.749900  0.693470  Uiso  0.001267
    Ce1  Ce4+  1.0000  0.924590  0.846270  0.668920  Uiso  0.001267
    Ce1  Ce4+  1.0000  0.181970  0.021080  0.803930  Uiso  0.001267
    Ce1  Ce4+  1.0000  0.304920  0.117450  0.779380  Uiso  0.001267
    Ce1  Ce4+  1.0000  0.427870  0.213830  0.754840  Uiso  0.001267
    Ce1  Ce4+  1.0000  0.550820  0.310200  0.730290  Uiso  0.001267
    Ce1  Ce4+  1.0000  0.673770  0.406570  0.705740  Uiso  0.001267
    Ce1  Ce4+  1.0000  0.796720  0.502950  0.681190  Uiso  0.001267
    Ce1  Ce4+  1.0000  0.919670  0.599320  0.656650  Uiso  0.001267
    Ce1  Ce4+  1.0000  0.545900  0.063240  0.718010  Uiso  0.001267
    Ce1  Ce4+  1.0000  0.668850  0.159620  0.693470  Uiso  0.001267
    Ce1  Ce4+  1.0000  0.791800  0.255990  0.668920  Uiso  0.001267
    Ce1  Ce4+  1.0000  0.914750  0.352360  0.644370  Uiso  0.001267
    Ce1  Ce4+  1.0000  0.786880  0.009030  0.656650  Uiso  0.001267
    Ce1  Ce4+  1.0000  0.909830  0.105410  0.632100  Uiso  0.001267
    Ce1  Ce4+  1.0000  0.078690  0.912530  0.803930  Uiso  0.001267
    Ce1  Ce4+  1.0000  0.073770  0.665580  0.791660  Uiso  0.001267
    Ce1  Ce4+  1.0000  0.196720  0.761950  0.767110  Uiso  0.001267
    Ce1  Ce4+  1.0000  0.319670  0.858320  0.742560  Uiso  0.001267
    Ce1  Ce4+  1.0000  0.442620  0.954690  0.718010  Uiso  0.001267
    Ce1  Ce4+  1.0000  0.068850  0.418620  0.779380  Uiso  0.001267
    Ce1  Ce4+  1.0000  0.191800  0.514990  0.754840  Uiso  0.001267
    Ce1  Ce4+  1.0000  0.314750  0.611370  0.730290  Uiso  0.001267
    Ce1  Ce4+  1.0000  0.437700  0.707740  0.705740  Uiso  0.001267
    Ce1  Ce4+  1.0000  0.560650  0.804110  0.681190  Uiso  0.001267
    Ce1  Ce4+  1.0000  0.683600  0.900480  0.656650  Uiso  0.001267
    Ce1  Ce4+  1.0000  0.806550  0.996860  0.632100  Uiso  0.001267
    Ce1  Ce4+  1.0000  0.063930  0.171660  0.767110  Uiso  0.001267
    Ce1  Ce4+  1.0000  0.186880  0.268040  0.742560  Uiso  0.001267
    Ce1  Ce4+  1.0000  0.309830  0.364410  0.718010  Uiso  0.001267
    Ce1  Ce4+  1.0000  0.432780  0.460780  0.693470  Uiso  0.001267
    Ce1  Ce4+  1.0000  0.555740  0.557160  0.668920  Uiso  0.001267
    Ce1  Ce4+  1.0000  0.678690  0.653530  0.644370  Uiso  0.001267
    Ce1  Ce4+  1.0000  0.801640  0.749900  0.619820  Uiso  0.001267
    Ce1  Ce4+  1.0000  0.924590  0.846270  0.595280  Uiso  0.001267
    Ce1  Ce4+  1.0000  0.181970  0.021080  0.730290  Uiso  0.001267
    Ce1  Ce4+  1.0000  0.304920  0.117450  0.705740  Uiso  0.001267
    Ce1  Ce4+  1.0000  0.427870  0.213830  0.681190  Uiso  0.001267
    Ce1  Ce4+  1.0000  0.550820  0.310200  0.656650  Uiso  0.001267
    Ce1  Ce4+  1.0000  0.673770  0.406570  0.632100  Uiso  0.001267
    Ce1  Ce4+  1.0000  0.796720  0.502950  0.607550  Uiso  0.001267
    Ce1  Ce4+  1.0000  0.919670  0.599320  0.583000  Uiso  0.001267
    Ce1  Ce4+  1.0000  0.545900  0.063240  0.644370  Uiso  0.001267
    Ce1  Ce4+  1.0000  0.668850  0.159620  0.619820  Uiso  0.001267
    Ce1  Ce4+  1.0000  0.791800  0.255990  0.595280  Uiso  0.001267
    Ce1  Ce4+  1.0000  0.914750  0.352360  0.570730  Uiso  0.001267
    Ce1  Ce4+  1.0000  0.786880  0.009030  0.583000  Uiso  0.001267
    Ce1  Ce4+  1.0000  0.909830  0.105410  0.558460  Uiso  0.001267
    Ce1  Ce4+  1.0000  0.078690  0.912530  0.730290  Uiso  0.001267
    Ce1  Ce4+  1.0000  0.073770  0.665580  0.718010  Uiso  0.001267
    Ce1  Ce4+  1.0000  0.196720  0.761950  0.693470  Uiso  0.001267
    Ce1  Ce4+  1.0000  0.319670  0.858320  0.668920  Uiso  0.001267
    Ce1  Ce4+  1.0000  0.442620  0.954690  0.644370  Uiso  0.001267
    Ce1  Ce4+  1.0000  0.068850  0.418620  0.705740  Uiso  0.001267
    Ce1  Ce4+  1.0000  0.191800  0.514990  0.681190  Uiso  0.001267
    Ce1  Ce4+  1.0000  0.314750  0.611370  0.656650  Uiso  0.001267
    Ce1  Ce4+  1.0000  0.437700  0.707740  0.632100  Uiso  0.001267
    Ce1  Ce4+  1.0000  0.560650  0.804110  0.607550  Uiso  0.001267
    Ce1  Ce4+  1.0000  0.683600  0.900480  0.583000  Uiso  0.001267
    Ce1  Ce4+  1.0000  0.806550  0.996860  0.558460  Uiso  0.001267
    Ce1  Ce4+  1.0000  0.063930  0.171660  0.693470  Uiso  0.001267
    Ce1  Ce4+  1.0000  0.186880  0.268040  0.668920  Uiso  0.001267
    Ce1  Ce4+  1.0000  0.309830  0.364410  0.644370  Uiso  0.001267
    Ce1  Ce4+  1.0000  0.432780  0.460780  0.619820  Uiso  0.001267
    Ce1  Ce4+  1.0000  0.555740  0.557160  0.595280  Uiso  0.001267
    Ce1  Ce4+  1.0000  0.678690  0.653530  0.570730  Uiso  0.001267
    Ce1  Ce4+  1.0000  0.801640  0.749900  0.546180  Uiso  0.001267
    Ce1  Ce4+  1.0000  0.924590  0.846270  0.521630  Uiso  0.001267
    Ce1  Ce4+  1.0000  0.181970  0.021080  0.656650  Uiso  0.001267
    Ce1  Ce4+  1.0000  0.304920  0.117450  0.632100  Uiso  0.001267
    Ce1  Ce4+  1.0000  0.427870  0.213830  0.607550  Uiso  0.001267
    Ce1  Ce4+  1.0000  0.550820  0.310200  0.583000  Uiso  0.001267
    Ce1  Ce4+  1.0000  0.673770  0.406570  0.558460  Uiso  0.001267
    Ce1  Ce4+  1.0000  0.796720  0.502950  0.533910  Uiso  0.001267
    Ce1  Ce4+  1.0000  0.919670  0.599320  0.509360  Uiso  0.001267
    Ce1  Ce4+  1.0000  0.545900  0.063240  0.570730  Uiso  0.001267
    Ce1  Ce4+  1.0000  0.668850  0.159620  0.546180  Uiso  0.001267
    Ce1  Ce4+  1.0000  0.791800  0.255990  0.521630  Uiso  0.001267
    Ce1  Ce4+  1.0000  0.914750  0.352360  0.497090  Uiso  0.001267
    Ce1  Ce4+  1.0000  0.786880  0.009030  0.509360  Uiso  0.001267
    Ce1  Ce4+  1.0000  0.909830  0.105410  0.484810  Uiso  0.001267
    Ce1  Ce4+  1.0000  0.078690  0.912530  0.656650  Uiso  0.001267
    Ce1  Ce4+  1.0000  0.073770  0.665580  0.644370  Uiso  0.001267
    Ce1  Ce4+  1.0000  0.196720  0.761950  0.619820  Uiso  0.001267
    Ce1  Ce4+  1.0000  0.319670  0.858320  0.595280  Uiso  0.001267
    Ce1  Ce4+  1.0000  0.442620  0.954690  0.570730  Uiso  0.001267
    Ce1  Ce4+  1.0000  0.068850  0.418620  0.632100  Uiso  0.001267
    Ce1  Ce4+  1.0000  0.191800  0.514990  0.607550  Uiso  0.001267
    Ce1  Ce4+  1.0000  0.314750  0.611370  0.583000  Uiso  0.001267
    Ce1  Ce4+  1.0000  0.437700  0.707740  0.558460  Uiso  0.001267
    Ce1  Ce4+  1.0000  0.560650  0.804110  0.533910  Uiso  0.001267
    Ce1  Ce4+  1.0000  0.683600  0.900480  0.509360  Uiso  0.001267
    Ce1  Ce4+  1.0000  0.806550  0.996860  0.484810  Uiso  0.001267
    Ce1  Ce4+  1.0000  0.063930  0.171660  0.619820  Uiso  0.001267
    Ce1  Ce4+  1.0000  0.186880  0.268040  0.595280  Uiso  0.001267
    Ce1  Ce4+  1.0000  0.309830  0.364410  0.570730  Uiso  0.001267
    Ce1  Ce4+  1.0000  0.432780  0.460780  0.546180  Uiso  0.001267
    Ce1  Ce4+  1.0000  0.555740  0.557160  0.521630  Uiso  0.001267
    Ce1  Ce4+  1.0000  0.678690  0.653530  0.497090  Uiso  0.001267
    Ce1  Ce4+  1.0000  0.801640  0.749900  0.472540  Uiso  0.001267
    Ce1  Ce4+  1.0000  0.924590  0.846270  0.447990  Uiso  0.001267
    Ce1  Ce4+  1.0000  0.181970  0.021080  0.583000  Uiso  0.001267
    Ce1  Ce4+  1.0000  0.304920  0.117450  0.558460  Uiso  0.001267
    Ce1  Ce4+  1.0000  0.427870  0.213830  0.533910  Uiso  0.001267
    Ce1  Ce4+  1.0000  0.550820  0.310200  0.509360  Uiso  0.001267
    Ce1  Ce4+  1.0000  0.673770  0.406570  0.484810  Uiso  0.001267
    Ce1  Ce4+  1.0000  0.796720  0.502950  0.460270  Uiso  0.001267
    Ce1  Ce4+  1.0000  0.919670  0.599320  0.435720  Uiso  0.001267
    Ce1  Ce4+  1.0000  0.545900  0.063240  0.497090  Uiso  0.001267
    Ce1  Ce4+  1.0000  0.668850  0.159620  0.472540  Uiso  0.001267
    Ce1  Ce4+  1.0000  0.791800  0.255990  0.447990  Uiso  0.001267
    Ce1  Ce4+  1.0000  0.914750  0.352360  0.423440  Uiso  0.001267
    Ce1  Ce4+  1.0000  0.786880  0.009030  0.435720  Uiso  0.001267
    Ce1  Ce4+  1.0000  0.909830  0.105410  0.411170  Uiso  0.001267
    Ce1  Ce4+  1.0000  0.078690  0.912530  0.583000  Uiso  0.001267
    Ce1  Ce4+  1.0000  0.073770  0.665580  0.570730  Uiso  0.001267
    Ce1  Ce4+  1.0000  0.196720  0.761950  0.546180  Uiso  0.001267
    Ce1  Ce4+  1.0000  0.319670  0.858320  0.521630  Uiso  0.001267
    Ce1  Ce4+  1.0000  0.442620  0.954690  0.497090  Uiso  0.001267
    Ce1  Ce4+  1.0000  0.068850  0.418620  0.558460  Uiso  0.001267
    Ce1  Ce4+  1.0000  0.191800  0.514990  0.533910  Uiso  0.001267
    Ce1  Ce4+  1.0000  0.314750  0.611370  0.509360  Uiso  0.001267
    Ce1  Ce4+  1.0000  0.437700  0.707740  0.484810  Uiso  0.001267
    Ce1  Ce4+  1.0000  0.560650  0.804110  0.460270  Uiso  0.001267
    Ce1  Ce4+  1.0000  0.683600  0.900480  0.435720  Uiso  0.001267
    Ce1  Ce4+  1.0000  0.806550  0.996860  0.411170  Uiso  0.001267
    Ce1  Ce4+  1.0000  0.063930  0.171660  0.546180  Uiso  0.001267
    Ce1  Ce4+  1.0000  0.186880  0.268040  0.521630  Uiso  0.001267
    Ce1  Ce4+  1.0000  0.309830  0.364410  0.497090  Uiso  0.001267
    Ce1  Ce4+  1.0000  0.432780  0.460780  0.472540  Uiso  0.001267
    Ce1  Ce4+  1.0000  0.555740  0.557160  0.447990  Uiso  0.001267
    Ce1  Ce4+  1.0000  0.678690  0.653530  0.423440  Uiso  0.001267
    Ce1  Ce4+  1.0000  0.801640  0.749900  0.398900  Uiso  0.001267
    Ce1  Ce4+  1.0000  0.924590  0.846270  0.374350  Uiso  0.001267
    Ce1  Ce4+  1.0000  0.181970  0.021080  0.509360  Uiso  0.001267
    Ce1  Ce4+  1.0000  0.304920  0.117450  0.484810  Uiso  0.001267
    Ce1  Ce4+  1.0000  0.427870  0.213830  0.460270  Uiso  0.001267
    Ce1  Ce4+  1.0000  0.550820  0.310200  0.435720  Uiso  0.001267
    Ce1  Ce4+  1.0000  0.673770  0.406570  0.411170  Uiso  0.001267
    Ce1  Ce4+  1.0000  0.796720  0.502950  0.386620  Uiso  0.001267
    Ce1  Ce4+  1.0000  0.919670  0.599320  0.362080  Uiso  0.001267
    Ce1  Ce4+  1.0000  0.545900  0.063240  0.423440  Uiso  0.001267
    Ce1  Ce4+  1.0000  0.668850  0.159620  0.398900  Uiso  0.001267
    Ce1  Ce4+  1.0000  0.791800  0.255990  0.374350  Uiso  0.001267
    Ce1  Ce4+  1.0000  0.914750  0.352360  0.349800  Uiso  0.001267
    Ce1  Ce4+  1.0000  0.786880  0.009030  0.362080  Uiso  0.001267
    Ce1  Ce4+  1.0000  0.909830  0.105410  0.337530  Uiso  0.001267
    Ce1  Ce4+  1.0000  0.078690  0.912530  0.509360  Uiso  0.001267
    Ce1  Ce4+  1.0000  0.073770  0.665580  0.497090  Uiso  0.001267
    Ce1  Ce4+  1.0000  0.196720  0.761950  0.472540  Uiso  0.001267
    Ce1  Ce4+  1.0000  0.319670  0.858320  0.447990  Uiso  0.001267
    Ce1  Ce4+  1.0000  0.442620  0.954690  0.423440  Uiso  0.001267
    Ce1  Ce4+  1.0000  0.068850  0.418620  0.484810  Uiso  0.001267
    Ce1  Ce4+  1.0000  0.191800  0.514990  0.460270  Uiso  0.001267
    Ce1  Ce4+  1.0000  0.314750  0.611370  0.435720  Uiso  0.001267
    Ce1  Ce4+  1.0000  0.437700  0.707740  0.411170  Uiso  0.001267
    Ce1  Ce4+  1.0000  0.560650  0.804110  0.386620  Uiso  0.001267
    Ce1  Ce4+  1.0000  0.683600  0.900480  0.362080  Uiso  0.001267
    Ce1  Ce4+  1.0000  0.806550  0.996860  0.337530  Uiso  0.001267
    Ce1  Ce4+  1.0000  0.063930  0.171660  0.472540  Uiso  0.001267
    Ce1  Ce4+  1.0000  0.186880  0.268040  0.447990  Uiso  0.001267
    Ce1  Ce4+  1.0000  0.309830  0.364410  0.423440  Uiso  0.001267
    Ce1  Ce4+  1.0000  0.432780  0.460780  0.398900  Uiso  0.001267
    Ce1  Ce4+  1.0000  0.555740  0.557160  0.374350  Uiso  0.001267
    Ce1  Ce4+  1.0000  0.678690  0.653530  0.349800  Uiso  0.001267
    Ce1  Ce4+  1.0000  0.801640  0.749900  0.325250  Uiso  0.001267
    Ce1  Ce4+  1.0000  0.924590  0.846270  0.300710  Uiso  0.001267
    Ce1  Ce4+  1.0000  0.181970  0.021080  0.435720  Uiso  0.001267
    Ce1  Ce4+  1.0000  0.304920  0.117450  0.411170  Uiso  0.001267
    Ce1  Ce4+  1.0000  0.427870  0.213830  0.386620  Uiso  0.001267
    Ce1  Ce4+  1.0000  0.550820  0.310200  0.362080  Uiso  0.001267
    Ce1  Ce4+  1.0000  0.673770  0.406570  0.337530  Uiso  0.001267
    Ce1  Ce4+  1.0000  0.796720  0.502950  0.312980  Uiso  0.001267
    Ce1  Ce4+  1.0000  0.919670  0.599320  0.288430  Uiso  0.001267
    Ce1  Ce4+  1.0000  0.545900  0.063240  0.349800  Uiso  0.001267
    Ce1  Ce4+  1.0000  0.668850  0.159620  0.325250  Uiso  0.001267
    Ce1  Ce4+  1.0000  0.791800  0.255990  0.300710  Uiso  0.001267
    Ce1  Ce4+  1.0000  0.914750  0.352360  0.276160  Uiso  0.001267
    Ce1  Ce4+  1.0000  0.786880  0.009030  0.288430  Uiso  0.001267
    Ce1  Ce4+  1.0000  0.909830  0.105410  0.263890  Uiso  0.001267
    Ce1  Ce4+  1.0000  0.078690  0.912530  0.435720  Uiso  0.001267
    Ce1  Ce4+  1.0000  0.073770  0.665580  0.423440  Uiso  0.001267
    Ce1  Ce4+  1.0000  0.196720  0.761950  0.398900  Uiso  0.001267
    Ce1  Ce4+  1.0000  0.319670  0.858320  0.374350  Uiso  0.001267
    Ce1  Ce4+  1.0000  0.442620  0.954690  0.349800  Uiso  0.001267
    Ce1  Ce4+  1.0000  0.068850  0.418620  0.411170  Uiso  0.001267
    Ce1  Ce4+  1.0000  0.191800  0.514990  0.386620  Uiso  0.001267
    Ce1  Ce4+  1.0000  0.314750  0.611370  0.362080  Uiso  0.001267
    Ce1  Ce4+  1.0000  0.437700  0.707740  0.337530  Uiso  0.001267
    Ce1  Ce4+  1.0000  0.560650  0.804110  0.312980  Uiso  0.001267
    Ce1  Ce4+  1.0000  0.683600  0.900480  0.288430  Uiso  0.001267
    Ce1  Ce4+  1.0000  0.806550  0.996860  0.263890  Uiso  0.001267
    Ce1  Ce4+  1.0000  0.063930  0.171660  0.398900  Uiso  0.001267
    Ce1  Ce4+  1.0000  0.186880  0.268040  0.374350  Uiso  0.001267
    Ce1  Ce4+  1.0000  0.309830  0.364410  0.349800  Uiso  0.001267
    Ce1  Ce4+  1.0000  0.432780  0.460780  0.325250  Uiso  0.001267
    Ce1  Ce4+  1.0000  0.555740  0.557160  0.300710  Uiso  0.001267
    Ce1  Ce4+  1.0000  0.678690  0.653530  0.276160  Uiso  0.001267
    Ce1  Ce4+  1.0000  0.801640  0.749900  0.251610  Uiso  0.001267
    Ce1  Ce4+  1.0000  0.924590  0.846270  0.227060  Uiso  0.001267
    Ce1  Ce4+  1.0000  0.181970  0.021080  0.362080  Uiso  0.001267
    Ce1  Ce4+  1.0000  0.304920  0.117450  0.337530  Uiso  0.001267
    Ce1  Ce4+  1.0000  0.427870  0.213830  0.312980  Uiso  0.001267
    Ce1  Ce4+  1.0000  0.550820  0.310200  0.288430  Uiso  0.001267
    Ce1  Ce4+  1.0000  0.673770  0.406570  0.263890  Uiso  0.001267
    Ce1  Ce4+  1.0000  0.796720  0.502950  0.239340  Uiso  0.001267
    Ce1  Ce4+  1.0000  0.919670  0.599320  0.214790  Uiso  0.001267
    Ce1  Ce4+  1.0000  0.545900  0.063240  0.276160  Uiso  0.001267
    Ce1  Ce4+  1.0000  0.668850  0.159620  0.251610  Uiso  0.001267
    Ce1  Ce4+  1.0000  0.791800  0.255990  0.227060  Uiso  0.001267
    Ce1  Ce4+  1.0000  0.914750  0.352360  0.202520  Uiso  0.001267
    Ce1  Ce4+  1.0000  0.786880  0.009030  0.214790  Uiso  0.001267
    Ce1  Ce4+  1.0000  0.909830  0.105410  0.190240  Uiso  0.001267
    Ce1  Ce4+  1.0000  0.078690  0.912530  0.362080  Uiso  0.001267
    Ce1  Ce4+  1.0000  0.073770  0.665580  0.349800  Uiso  0.001267
    Ce1  Ce4+  1.0000  0.196720  0.761950  0.325250  Uiso  0.001267
    Ce1  Ce4+  1.0000  0.319670  0.858320  0.300710  Uiso  0.001267
    Ce1  Ce4+  1.0000  0.442620  0.954690  0.276160  Uiso  0.001267
    Ce1  Ce4+  1.0000  0.068850  0.418620  0.337530  Uiso  0.001267
    Ce1  Ce4+  1.0000  0.191800  0.514990  0.312980  Uiso  0.001267
    Ce1  Ce4+  1.0000  0.314750  0.611370  0.288430  Uiso  0.001267
    Ce1  Ce4+  1.0000  0.437700  0.707740  0.263890  Uiso  0.001267
    Ce1  Ce4+  1.0000  0.560650  0.804110  0.239340  Uiso  0.001267
    Ce1  Ce4+  1.0000  0.683600  0.900480  0.214790  Uiso  0.001267
    Ce1  Ce4+  1.0000  0.806550  0.996860  0.190240  Uiso  0.001267
    Ce1  Ce4+  1.0000  0.063930  0.171660  0.325250  Uiso  0.001267
    Ce1  Ce4+  1.0000  0.186880  0.268040  0.300710  Uiso  0.001267
    Ce1  Ce4+  1.0000  0.309830  0.364410  0.276160  Uiso  0.001267
    Ce1  Ce4+  1.0000  0.432780  0.460780  0.251610  Uiso  0.001267
    Ce1  Ce4+  1.0000  0.555740  0.557160  0.227060  Uiso  0.001267
    Ce1  Ce4+  1.0000  0.678690  0.653530  0.202520  Uiso  0.001267
    Ce1  Ce4+  1.0000  0.801640  0.749900  0.177970  Uiso  0.001267
    Ce1  Ce4+  1.0000  0.924590  0.846270  0.153420  Uiso  0.001267
    Ce1  Ce4+  1.0000  0.181970  0.021080  0.288430  Uiso  0.001267
    Ce1  Ce4+  1.0000  0.304920  0.117450  0.263890  Uiso  0.001267
    Ce1  Ce4+  1.0000  0.427870  0.213830  0.239340  Uiso  0.001267
    Ce1  Ce4+  1.0000  0.550820  0.310200  0.214790  Uiso  0.001267
    Ce1  Ce4+  1.0000  0.673770  0.406570  0.190240  Uiso  0.001267
    Ce1  Ce4+  1.0000  0.796720  0.502950  0.165700  Uiso  0.001267
    Ce1  Ce4+  1.0000  0.919670  0.599320  0.141150  Uiso  0.001267
    Ce1  Ce4+  1.0000  0.545900  0.063240  0.202520  Uiso  0.001267
    Ce1  Ce4+  1.0000  0.668850  0.159620  0.177970  Uiso  0.001267
    Ce1  Ce4+  1.0000  0.791800  0.255990  0.153420  Uiso  0.001267
    Ce1  Ce4+  1.0000  0.914750  0.352360  0.128870  Uiso  0.001267
    Ce1  Ce4+  1.0000  0.786880  0.009030  0.141150  Uiso  0.001267
    Ce1  Ce4+  1.0000  0.909830  0.105410  0.116600  Uiso  0.001267
    Ce1  Ce4+  1.0000  0.078690  0.912530  0.288430  Uiso  0.001267
    Ce1  Ce4+  1.0000  0.073770  0.665580  0.276160  Uiso  0.001267
    Ce1  Ce4+  1.0000  0.196720  0.761950  0.251610  Uiso  0.001267
    Ce1  Ce4+  1.0000  0.319670  0.858320  0.227060  Uiso  0.001267
    Ce1  Ce4+  1.0000  0.442620  0.954690  0.202520  Uiso  0.001267
    Ce1  Ce4+  1.0000  0.068850  0.418620  0.263890  Uiso  0.001267
    Ce1  Ce4+  1.0000  0.191800  0.514990  0.239340  Uiso  0.001267
    Ce1  Ce4+  1.0000  0.314750  0.611370  0.214790  Uiso  0.001267
    Ce1  Ce4+  1.0000  0.437700  0.707740  0.190240  Uiso  0.001267
    Ce1  Ce4+  1.0000  0.560650  0.804110  0.165700  Uiso  0.001267
    Ce1  Ce4+  1.0000  0.683600  0.900480  0.141150  Uiso  0.001267
    Ce1  Ce4+  1.0000  0.806550  0.996860  0.116600  Uiso  0.001267
    Ce1  Ce4+  1.0000  0.063930  0.171660  0.251610  Uiso  0.001267
    Ce1  Ce4+  1.0000  0.186880  0.268040  0.227060  Uiso  0.001267
    Ce1  Ce4+  1.0000  0.309830  0.364410  0.202520  Uiso  0.001267
    Ce1  Ce4+  1.0000  0.432780  0.460780  0.177970  Uiso  0.001267
    Ce1  Ce4+  1.0000  0.555740  0.557160  0.153420  Uiso  0.001267
    Ce1  Ce4+  1.0000  0.678690  0.653530  0.128870  Uiso  0.001267
    Ce1  Ce4+  1.0000  0.801640  0.749900  0.104330  Uiso  0.001267
    Ce1  Ce4+  1.0000  0.924590  0.846270  0.079780  Uiso  0.001267
    Ce1  Ce4+  1.0000  0.181970  0.021080  0.214790  Uiso  0.001267
    Ce1  Ce4+  1.0000  0.304920  0.117450  0.190240  Uiso  0.001267
    Ce1  Ce4+  1.0000  0.427870  0.213830  0.165700  Uiso  0.001267
    Ce1  Ce4+  1.0000  0.550820  0.310200  0.141150  Uiso  0.001267
    Ce1  Ce4+  1.0000  0.673770  0.406570  0.116600  Uiso  0.001267
    Ce1  Ce4+  1.0000  0.796720  0.502950  0.092050  Uiso  0.001267
    Ce1  Ce4+  1.0000  0.919670  0.599320  0.067510  Uiso  0.001267
    Ce1  Ce4+  1.0000  0.545900  0.063240  0.128870  Uiso  0.001267
    Ce1  Ce4+  1.0000  0.668850  0.159620  0.104330  Uiso  0.001267
    Ce1  Ce4+  1.0000  0.791800  0.255990  0.079780  Uiso  0.001267
    Ce1  Ce4+  1.0000  0.914750  0.352360  0.055230  Uiso  0.001267
    Ce1  Ce4+  1.0000  0.786880  0.009030  0.067510  Uiso  0.001267
    Ce1  Ce4+  1.0000  0.909830  0.105410  0.042960  Uiso  0.001267
    Ce1  Ce4+  1.0000  0.078690  0.912530  0.214790  Uiso  0.001267
    Ce1  Ce4+  1.0000  0.073770  0.665580  0.202520  Uiso  0.001267
    Ce1  Ce4+  1.0000  0.196720  0.761950  0.177970  Uiso  0.001267
    Ce1  Ce4+  1.0000  0.319670  0.858320  0.153420  Uiso  0.001267
    Ce1  Ce4+  1.0000  0.442620  0.954690  0.128870  Uiso  0.001267
    Ce1  Ce4+  1.0000  0.068850  0.418620  0.190240  Uiso  0.001267
    Ce1  Ce4+  1.0000  0.191800  0.514990  0.165700  Uiso  0.001267
    Ce1  Ce4+  1.0000  0.314750  0.611370  0.141150  Uiso  0.001267
    Ce1  Ce4+  1.0000  0.437700  0.707740  0.116600  Uiso  0.001267
    Ce1  Ce4+  1.0000  0.560650  0.804110  0.092050  Uiso  0.001267
    Ce1  Ce4+  1.0000  0.683600  0.900480  0.067510  Uiso  0.001267
    Ce1  Ce4+  1.0000  0.806550  0.996860  0.042960  Uiso  0.001267
    Ce1  Ce4+  1.0000  0.063930  0.171660  0.177970  Uiso  0.001267
    Ce1  Ce4+  1.0000  0.186880  0.268040  0.153420  Uiso  0.001267
    Ce1  Ce4+  1.0000  0.309830  0.364410  0.128870  Uiso  0.001267
    Ce1  Ce4+  1.0000  0.432780  0.460780  0.104330  Uiso  0.001267
    Ce1  Ce4+  1.0000  0.555740  0.557160  0.079780  Uiso  0.001267
    Ce1  Ce4+  1.0000  0.678690  0.653530  0.055230  Uiso  0.001267
    Ce1  Ce4+  1.0000  0.801640  0.749900  0.030680  Uiso  0.001267
    Ce1  Ce4+  1.0000  0.924590  0.846270  0.006140  Uiso  0.001267
    Ce1  Ce4+  1.0000  0.181970  0.021080  0.141150  Uiso  0.001267
    Ce1  Ce4+  1.0000  0.304920  0.117450  0.116600  Uiso  0.001267
    Ce1  Ce4+  1.0000  0.427870  0.213830  0.092050  Uiso  0.001267
    Ce1  Ce4+  1.0000  0.550820  0.310200  0.067510  Uiso  0.001267
    Ce1  Ce4+  1.0000  0.673770  0.406570  0.042960  Uiso  0.001267
    Ce1  Ce4+  1.0000  0.796720  0.502950  0.018410  Uiso  0.001267
    Ce1  Ce4+  1.0000  0.545900  0.063240  0.055230  Uiso  0.001267
    Ce1  Ce4+  1.0000  0.668850  0.159620  0.030680  Uiso  0.001267
    Ce1  Ce4+  1.0000  0.791800  0.255990  0.006140  Uiso  0.001267
    Ce1  Ce4+  1.0000  0.078690  0.912530  0.141150  Uiso  0.001267
    Ce1  Ce4+  1.0000  0.073770  0.665580  0.128870  Uiso  0.001267
    Ce1  Ce4+  1.0000  0.196720  0.761950  0.104330  Uiso  0.001267
    Ce1  Ce4+  1.0000  0.319670  0.858320  0.079780  Uiso  0.001267
    Ce1  Ce4+  1.0000  0.442620  0.954690  0.055230  Uiso  0.001267
    Ce1  Ce4+  1.0000  0.068850  0.418620  0.116600  Uiso  0.001267
    Ce1  Ce4+  1.0000  0.191800  0.514990  0.092050  Uiso  0.001267
    Ce1  Ce4+  1.0000  0.314750  0.611370  0.067510  Uiso  0.001267
    Ce1  Ce4+  1.0000  0.437700  0.707740  0.042960  Uiso  0.001267
    Ce1  Ce4+  1.0000  0.560650  0.804110  0.018410  Uiso  0.001267
    Ce1  Ce4+  1.0000  0.063930  0.171660  0.104330  Uiso  0.001267
    Ce1  Ce4+  1.0000  0.186880  0.268040  0.079780  Uiso  0.001267
    Ce1  Ce4+  1.0000  0.309830  0.364410  0.055230  Uiso  0.001267
    Ce1  Ce4+  1.0000  0.432780  0.460780  0.030680  Uiso  0.001267
    Ce1  Ce4+  1.0000  0.555740  0.557160  0.006140  Uiso  0.001267
    Ce1  Ce4+  1.0000  0.181970  0.021080  0.067510  Uiso  0.001267
    Ce1  Ce4+  1.0000  0.304920  0.117450  0.042960  Uiso  0.001267
    Ce1  Ce4+  1.0000  0.427870  0.213830  0.018410  Uiso  0.001267
    Ce1  Ce4+  1.0000  0.078690  0.912530  0.067510  Uiso  0.001267
    Ce1  Ce4+  1.0000  0.073770  0.665580  0.055230  Uiso  0.001267
    Ce1  Ce4+  1.0000  0.196720  0.761950  0.030680  Uiso  0.001267
    Ce1  Ce4+  1.0000  0.319670  0.858320  0.006140  Uiso  0.001267
    Ce1  Ce4+  1.0000  0.068850  0.418620  0.042960  Uiso  0.001267
    Ce1  Ce4+  1.0000  0.191800  0.514990  0.018410  Uiso  0.001267
    Ce1  Ce4+  1.0000  0.063930  0.171660  0.030680  Uiso  0.001267
    Ce1  Ce4+  1.0000  0.186880  0.268040  0.006140  Uiso  0.001267

# End of data_CELSLC
